<routes xmlns:xsi="http://www.w3.org/2001/XMLSchema-instance" xsi:noNamespaceSchemaLocation="http://sumo.dlr.de/xsd/routes_file.xsd">
    <route edges="-35847131#1 32034113 28166525 240313133#1 240313133#2 365182713 191742038 191742039 191742035#2 191742035#3 191605132 191785968 29034347#0 388018850#1 194192326#1" id="route1" />
    <route edges="-121390545#2 -121390545#0 28142439#0 28142439#1 28142439#2 28142439#3 28142439#4 102299241 479253674 28142433#0 28142433#1 -191742036 -365182713 -240313134 -240313133#1 -240313133#0 -622676076#0 622676077 946531060 967748229 1159435543 1159435542 1160200440 1192253462#0 1192253462#1 1192253462#2 1192253462#3 1192253462#4 1192574339#0 1192574339#1 1192253461#0 1192253461#1 1254932734#1 1160573566 -960705969#3 -960705969#2 -960705969#1 -323342968#3 -323342968#2 -323342968#1" id="route2" />
    <route edges="-35847131#1 32034113 28166525 240313133#1 240313133#2 365182713 191742036 28142435#0 28142435#1 479253675 388081714 388081712 960216551 28142431#1" id="route3" />
    <route edges="35978053#0 323342968#0 323342968#1 323342968#2 323342968#3 960705969#1 960705969#2 960705969#3 1254932727 1254932731 1254932733 -1254932734#1 -1254932734#0 -1192253461#0 1254932735 -1192253462#4 -1192253462#3 -1192253462#2 -1192253462#1 -1192253462#0" id="route4" />
    <route edges="35847131#1 -1251240246 -967748230 619244001 619244002#0 619244002#1 619244002#2 191742012#0 191742012#1 191742013 -174500774 -1285097180 -35847068#1 -35847068#0 35847081 1159435543 1159435542 1160200440 1254164632 1251241724 1160200441#1 23195995 622676076#0 28166525 240313133#1 240313133#2 365182713 191742036 28142435#0 28142435#1 479253675 388081714 388081712 960216551 28142431#1 29034477#0" id="route5" />
    <route edges="-35978076#0 -305323800 -193166664#2 -193166664#0 1254932731 1254932733 -1254932734#1 -1254932734#0 -1192253461#0 1254932735 -1192253462#4 -1192253462#3 -1192253462#2 -1192253462#1 -1192253462#0 1254164632 1251241724 1160200441#1 967748228 946531060 32047804 35847068#0 35847068#1 35847026#0 35847026#1 35847026#2 -619244002#2" id="route6" />
    <route edges="-35978076#0 -305323800 -193166664#2 -193166664#0 1254932731 1254932733 -1254932734#1 -1254932734#0" id="route7" />
    <route edges="28166525 240313133#1 240313133#2 365182713 191742036 28142435#0 28142435#1 479253675 388081714 388081712 389406954 389406953 388081713 390222602 102299241 479253674 28142433#0 28142433#1 -191742036 -365182713 -240313134 -240313133#1 -240313133#0 -622676076#0 622676077 946531060 967748229 1159435543 1159435542 1160200440 1192253462#0 1192253462#1 1192253462#2 1192253462#3 1192253462#4 1192574339#0 -383116022#3 -383116022#2 32035131#0 32035131#1 174500828#2" id="route8" />
    <route edges="-405724955 -32056569 -405724954#1 -405724954#0 23584793#2 -976185943#1 -976185943#0 193166668#3 193166668#4 1254932730 690163989 -690163997#1 -690163997#0 -28401360#5 -28401360#4 -28401360#3 -28401360#2 -28401360#1 -28401360#0 -1251240246 -967748230 -390221190 -528394548#1 -528394548#0 -200445697 -390221189#1" id="route9" />
    <route edges="28140166 191605129#0 485716508 542732317 191605131 620619357#1 388018850#0 388018850#1 194192326#1 1160417415 28140277#0 28140277#2 388081712 389406954 389406953 388081713 390222602 102299241 479253674 28142433#0 28142433#1 -191742036 -365182713 -240313134 -240313133#1 -240313133#0 -622676076#0 622676077 946531060 967748229 1159435543 1159435542 1160200440 1192253462#0 1192253462#1 1192253462#2 1192253462#3 1192253462#4 1192574339#0 1192574339#1 1192253461#0 1192253461#1 1254932734#1 1160573566 -960705969#3 -960705969#2 -960705969#1 -323342968#3 -323342968#2 -323342968#1 -323342968#0 -35978053#0 -480088113#2 -480088113#1" id="route10" />
    <route edges="174500828#0 32035141#0 32035141#1 383116022#1 383116022#2 383116022#3 1192574339#1 1192253461#0 1192253461#1 1254932734#1 1160573566 -960705969#3 -960705969#2 -960705969#1 -323342968#3 -323342968#2 -323342968#1 -323342968#0 -35978053#0" id="route11" />
    <route edges="978138010 32047570 -32035141#0 174500828#1 174500828#2 1160200440 1254164632 1251241724 1160200441#1 23195995 622676076#0 28166525 240313133#1 240313133#2 365182713 191742038 191742039 191742035#2 191742035#3 191605132 194192325#1 542732321 542732320 542732319 28121198 194192327" id="route12" />
    <route edges="32056569 405724955 -405724954#1 -405724954#0 -23584793#1 32048306 -193166664#2 -193166664#0 1254932731 1254932733 -1254932734#1 -1254932734#0 -1192253461#0 1254932735 -1192253462#4 -1192253462#3 -1192253462#2 -1192253462#1 -1192253462#0 1254164632 1251241724 1160200441#1 23195995 622676076#0 28166525 240313133#1 240313133#2 365182713 191742038 191742039 191742035#2 23683655#0 23683655#1 23683655#2" id="route13" />
    <route edges="-1172956880 288369008 1172956885 967748230 1251240246 1251240245 28401360#1 28401360#2 28401360#3 28401360#4 28401360#5 690163997#0 690163997#1 1254932732 -193166668#4 -193166668#3 -193166668#2 -193166668#1 -193166668#0 1254932733 1160573566 -960705969#3 -960705969#2" id="route14" />
    <route edges="-193166668#3 -193166668#2 -193166668#1 -193166668#0 1254932733 -1254932734#1 -1254932734#0 -1192253461#0 1254932735 -1192253462#4 -1192253462#3 -1192253462#2 -1192253462#1 -1192253462#0 1254164632 1251241724 1160200441#1 23195995 622676076#0 28166525 240313133#1 240313133#2 365182713 191742036 28142435#0 28142435#1 479253675 388081714 388081712 389406954 389406953 28681366 321050002#0" id="route15" />
    <route edges="191742040#1 121390202#1 28142438#0 28142438#1 28142438#2 -121390545#0 28142439#0 28142439#1 28142439#2 28142439#3 28142439#4 102299241 479253674 390222603 479253675 390222597 191742035#2 191742035#3 191605132 194192325#1 542732321 542732320 542732319 28121198" id="route16" />
    <route edges="-405724955 -32056569 -405724954#1 -405724954#0 -23584793#1 32048306 -193166664#2 -193166664#0 1254932731 1254932733 -1254932734#1 -1254932734#0 -1192253461#0 1254932735 -1192253462#4 -1192253462#3 -1192253462#2 -1192253462#1 -1192253462#0 1254164632 1251241724 1160200441#1 23195995 622676076#0 28166525 240313133#1 240313133#2 365182713 191742036 28142435#0 28142435#1 479253675 390222597" id="route17" />
    <route edges="-323342968#1 -323342968#0 323342968#0 323342968#1 323342968#2 323342968#3 960705969#1 960705969#2 960705969#3 1254932727 1254932731 1254932733 -1254932734#1 -1254932734#0 -737507800#1 -737507800#0" id="route18" />
    <route edges="-35978076#0 -305323800 -193166664#2 -193166664#0 1254932731 1254932733 1160573566 -960705969#3 -960705969#2 -960705969#1 -323342968#3 -323342968#2 -323342968#1 -323342968#0 -35978053#0" id="route19" />
    <route edges="-35978076#0 -305323800 -193166664#2 -193166664#0 1254932731 1254932733 -1254932734#1 -1254932734#0 -1192253461#0 1254932735 -1192253462#4 -1192253462#3 -1192253462#2 -1192253462#1 -1192253462#0 1254164632 1251241724 1160200441#1 967748228 946531060 32047804 35847068#0 35847068#1 1285097180 174500774 390221189#0 390221189#1 200445697 528394548#0" id="route20" />
    <route edges="-383116022#0 976698608#1 976698608#2 383116022#0 383116022#1 383116022#2 383116022#3 1192574339#1 1254932735 -1192253462#4 -1192253462#3 -1192253462#2 -1192253462#1 -1192253462#0 1254164632 1251241724 1160200441#1 23195995 622676076#0 28166525 240313133#1 240313133#2 365182713 191742036 28142435#0 28142435#1 479253675 388081714 388081712 389406954 389406953 28681366" id="route21" />
    <route edges="191742040#0 191742040#1 121390202#1 28142438#0 28142438#1 28142438#2 -121390545#0 28142439#0 28142439#1 28142439#2 28142439#3 28142439#4 102299241 479253674 28142433#0 28142433#1 -191742036 -365182713 -240313134 -240313133#1 -240313133#0 -622676076#0 622676077 946531060 32047804 35847068#0 35847068#1 35847026#0 35847026#1 35847026#2" id="route22" />
    <route edges="32035131#0 32035131#1 174500828#2 1160200440 1254164632 1251241724 1160200441#1 23195995 622676076#0 28166525 240313133#1 240313133#2 365182713 191742036 28142435#0 28142435#1 479253675 388081714 388081712 389406954 389406953 388081713 390222602 102299241 364642152#0 364642152#1 28142438#0 28142438#1 -28687160#1 -28687160#0 28687158" id="route23" />
    <route edges="-32047800 -32035148#0 174500828#1 174500828#2 1160200440 1254164632 1251241724 1160200441#1 23195995 622676076#0 28166525 240313133#1 240313133#2 365182713 191742038 191742039 191742035#2" id="route24" />
    <route edges="191742012#0 191742012#1 191742013 -174500774 -1285097180 -35847068#1 -35847068#0 35847081 1159435543 1159435542 1160200440 1254164632 1251241724 1160200441#1 23195995 622676076#0 28166525 240313133#1 240313133#2 365182713 191742038 191742039 191742035#2 191742035#3 191605132 194192325#1 542732321 542732320 542732319 542732318 542732317 191605131 620619357#1 388018850#0" id="route25" />
    <route edges="978138010 32047570 -32035141#0 174500828#1 174500828#2 1160200440 1254164632 1251241724 1160200441#1 23195995 622676076#0 28166525 240313133#1 240313133#2 365182713 191742036 28142435#0 28142435#1 479253675 388081714 388081712 389406954 389406953 388081713 390222602 102299241 364642152#0" id="route26" />
    <route edges="121390545#2 -28687158 28687160#0 28687160#1 28142438#2 -121390545#0 28142439#0 28142439#1 28142439#2 28142439#3 28142439#4 102299241 479253674 28142433#0 28142433#1 -191742036 -365182713 -240313134 -240313133#1 -240313133#0 -622676076#0 622676077 946531060 32047804 35847068#0 35847068#1 35847026#0 35847026#1 35847026#2 -619244002#2 -619244002#1 -619244002#0 -619244001 967748230" id="route27" />
    <route edges="-405724955 -32056569 -405724954#1 -405724954#0 -23584793#1 32048306 -193166664#2 -193166664#0 1254932731 1254932733 -1254932734#1 -1254932734#0 -1192253461#0 1254932735 -1192253462#4 -1192253462#3 -1192253462#2 -1192253462#1 -1192253462#0 1254164632 1251241724 1160200441#1 967748228 946531060 32047804 35847068#0 35847068#1 35847026#0 35847026#1" id="route28" />
    <route edges="-365182713 -240313134 -240313133#1 -240313133#0 -622676076#0 622676077 946531060 967748229 1159435543 1159435542 1160200440 1254164632 1251241724 1160200441#1 23195995 622676076#0 28166525 240313133#1 240313133#2 365182713 191742036 28142435#0 28142435#1 479253675 388081714 388081712 389406954 389406953 388081713 390222602 102299241 364642152#0 364642152#1 28142438#0 28142438#1 28142438#2 -121390545#0 121390545#0 -28142438#2 -28142438#1" id="route29" />
    <route edges="405724955 -405724954#1 -405724954#0 23584793#2 -976185943#1 -976185943#0 193166668#3 193166668#4 1254932730 690163989 -690163997#1 -690163997#0 -28401360#5 -28401360#4 -28401360#3 -28401360#2 -28401360#1 -28401360#0 -1251240246 -967748230 -390221190 -528394548#1 -528394548#0 -200445697 -390221189#1" id="route30" />
    <route edges="-383116022#0 976698608#1 976698608#2 383116022#0 383116022#1 32035131#0 32035131#1 174500828#2" id="route31" />
    <route edges="978138010 976699097" id="route32" />
    <route edges="-405724955 -32056569 -405724954#1 -405724954#0 -23584793#1 32048306 -193166664#2 -193166664#0 1254932731 1254932733 -1254932734#1 -1254932734#0 -1192253461#0 1254932735 -1192253462#4 -1192253462#3 -1192253462#2 -1192253462#1 -1192253462#0 1254164632 1251241724 1160200441#1 967748228 946531060 967748229 1159435543 622683999#0 622683999#1" id="route33" />
    <route edges="35978089#1 35978089#2 1161326868 960705969#0 960705969#1 960705969#2 960705969#3 1254932727 1254932731 1254932733 -1254932734#1 -1254932734#0 -1192253461#0 1254932735 -1192253462#4 -1192253462#3 -1192253462#2 -1192253462#1 -1192253462#0 1254164632 1251241724 1160200441#1 23195995 622676076#0 28166525 240313133#1 240313133#2 365182713 191742036 28142435#0 28142435#1 479253675 388081714 388081712 960216551 28142431#1 29034475#1 180710690 -29034478 -29034479#0 29034479#0" id="route34" />
    <route edges="35978087#0 35978087#1 35978087#2 35978087#3 -193166664#0 1254932731 193166668#0 193166668#1 193166668#2 193166668#3 193166668#4 1254932730 688182343#0 688182343#1 365182712 690163991#0 690163991#1 -690163991#1 -690163991#0 -365182712 -688182343#1" id="route35" />
    <route edges="28401360#2 28401360#3 28401360#4 28401360#5 690163997#0 690163997#1 1254932732 1254932730 690163989 -690163997#1 -690163997#0 -28401360#5 -28401360#4 -28401360#3 -28401360#2 -28401360#1 -28401360#0 -35847131#1 -35847131#0 32034491 1160200441#1 967748228 946531060 967748229 1159435543 622683999#0 622683999#1 622683999#2" id="route36" />
    <route edges="-28140744#0 28140744#0 28140744#1 28140744#2 28140744#3 191742040#0 191742040#1 121390202#1 28142438#0 28142438#1 28142438#2 -121390545#0 28142439#0 28142439#1 28142439#2 28142439#3 28142439#4 102299241 479253674 390222603 479253675 390222597 191742035#2 191742035#3 191605132 194192325#1 542732321 28121201#0 28121201#1" id="route37" />
    <route edges="-1192253461#0 1254932735 1192574339#0 1192574339#1 1192253461#0 1192253461#1 1254932734#1 1160573566 -960705969#3 -960705969#2 -960705969#1 -323342968#3 -323342968#2 -323342968#1 -323342968#0 323342968#0 323342968#1" id="route38" />
    <route edges="495295554 -305323800 -193166664#2 -193166664#0 1254932731 1254932733 -1254932734#1 -1254932734#0 -1192253461#0 1254932735 -1192253462#4 -1192253462#3 -1192253462#2 -1192253462#1 -1192253462#0 1254164632 1251241724 1160200441#1 23195995 622676076#0 28166525 240313133#1 240313133#2" id="route39" />
    <route edges="33787457 28142439#0 28142439#1 28142439#2 28142439#3 28142439#4 102299241 479253674 28142433#0 28142433#1 -191742036 -365182713 -240313134 -240313133#1 -240313133#0 -622676076#0 622676077 946531060 967748229 1159435543 1159435542 1160200440 1192253462#0 1192253462#1 1192253462#2 1192253462#3 1192253462#4 1192574339#0 1192574339#1 1192253461#0 1192253461#1 1254932734#1 1160573566 1254932727 193166664#0 193166664#2 305323800 23584793#0 23584793#1 405724954#0 405724954#1 32056569 405724955" id="route40" />
    <route edges="35978053#0 323342968#0 323342968#1 323342968#2 323342968#3 960705969#1 960705969#2 960705969#3 1254932727 193166664#0 193166664#2 305323800 23584793#0 23584793#1 405724954#0 405724954#1" id="route41" />
    <route edges="-121390545#2 -121390545#0 28142439#0 28142439#1 28142439#2 28142439#3 28142439#4 102299241 479253674 28142433#0 28142433#1 -191742036 -365182713 -240313134 -240313133#1 -240313133#0 -622676076#0 622676077 946531060 967748229 1159435543 622683999#0 622683999#1 32035148#0" id="route42" />
    <route edges="-960705969#2 -960705969#1 960705969#1 960705969#2 960705969#3 1254932727 1254932731 1254932733 -1254932734#1 -1254932734#0 -1192253461#0 1254932735 -1192253462#4 -1192253462#3 -1192253462#2 -1192253462#1 -1192253462#0 1254164632 1251241724 1160200441#1 967748228 946531060 967748229 1159435543 622683999#0" id="route43" />
    <route edges="35978053#0 -35978053#0 -480088113#2" id="route44" />
    <route edges="-28140744#0 28140744#0 28140744#1 28140744#2 28140744#3 191742040#0 191742040#1 121390202#1 28142438#0 28142438#1 28142438#2 -121390545#0 28142439#0 28142439#1 28142439#2 28142439#3 28142439#4 102299241 479253674 390222603 479253675 390222597 191742035#2 191742035#3 191605132 194192325#1 542732321 542732320 542732319 28121198 191605143#2 191605143#3" id="route45" />
    <route edges="32035131#0 32035131#1 174500828#2 1160200440 1192253462#0 1192253462#1 1192253462#2 1192253462#3 1192253462#4 1192574339#0 1192574339#1 1192253461#0 -737507800#1" id="route46" />
    <route edges="-390221190 -528394548#1 -528394548#0 -200445697 -390221189#1 -390221189#0 -174500774 -1285097180 -35847068#1 -35847068#0 35847081 1159435543 1159435542 1160200440 1254164632 1251241724 1160200441#1 23195995 622676076#0 28166525 240313133#1 240313133#2 365182713 191742036 28142435#0 28142435#1 479253675 388081714 388081712 960216551 28142431#1 29034475#1 29034475#2 29034479#2" id="route47" />
    <route edges="-1172956880 288369008 1172956885 967748230 1251240246 -35847131#1 -35847131#0 32034491 1160200441#1 23195995 622676076#0" id="route48" />
    <route edges="-690163991#1 -690163991#0 -365182712 -688182343#1 -688182343#0 690163989 -690163997#1 -690163997#0 -28401360#5 -28401360#4 -28401360#3 -28401360#2 -28401360#1 -28401360#0 -35847131#1 32034113 28166525 240313133#1 240313133#2 365182713" id="route49" />
    <route edges="-690163991#0 -365182712 -688182343#1 -688182343#0 690163989 -690163997#1 -690163997#0 -28401360#5 -28401360#4 -28401360#3 -28401360#2 -28401360#1 -28401360#0 -35847131#1 32034113 28166525 240313133#1 240313133#2 365182713 191742038 191742039 191742035#2 191742035#3 191605132 191785968 180710688#0" id="route50" />
    <route edges="622683999#2 32047907#1 174500828#0 174500828#1 174500828#2 1160200440 1254164632 1251241724 1160200441#1 23195995 622676076#0 28166525 240313133#1 240313133#2 365182713 191742036 28142435#0 28142435#1 479253675 388081714 388081712 389406954 389406953 388081713 390222602 102299241 364642152#0 364642152#1 28142438#0 28142438#1 28142438#2 121390545#2 -28687158 28687160#0" id="route51" />
    <route edges="-1172956880 288369008 -528394548#1 -528394548#0 -200445697 -390221189#1 -390221189#0 -174500774 -1285097180 35847026#0 35847026#1 35847026#2 -619244002#2 -619244002#1" id="route52" />
    <route edges="-23195802#1 620619357#1 388018850#0 388018850#1 191785968 180710688#0 -29034479#2 29034475#3 194192325#1 542732321 542732320 542732319 542732318 542732317 191605131 23195802#1" id="route53" />
    <route edges="-32056569 -405724954#1 -405724954#0 -23584793#1 32048306 -193166664#2 -193166664#0 1254932731 1254932733 -1254932734#1 -1254932734#0 -1192253461#0 1254932735 -1192253462#4 -1192253462#3 -1192253462#2 -1192253462#1 -1192253462#0 1254164632 1251241724 1160200441#1 23195995 622676076#0 28166525 240313133#1 240313133#2 365182713 191742036 28142435#0 28142435#1 479253675 388081714 388081712 960216551 28142431#1 29034477#0" id="route54" />
    <route edges="28166525 240313133#1 240313133#2 365182713 191742036 28142435#0 28142435#1 479253675 388081714 388081712 389406954 389406953 388081713 390222602 102299241 479253674 28142433#0 28142433#1 -191742036 -365182713 -240313134 -240313133#1 -240313133#0 -622676076#0 622676077 946531060 967748229 1159435543 1159435542 1160200440 1192253462#0 1192253462#1 1192253462#2 1192253462#3 1192253462#4 1192574339#0 1192574339#1 1192253461#0 -737507800#1 -737507800#0 737507800#0 737507800#1 -1192253461#0" id="route55" />
    <route edges="-28140744#0 28140744#0 28140744#1 28140744#2 28140744#3 191742040#0 191742040#1 121390202#1 28142438#0 28142438#1 28142438#2 -121390545#0 28142439#0 28142439#1 28142439#2 28142439#3 28142439#4 102299241 479253674 390222603 479253675 390222597 191742035#2 191742035#3 191605132 194192325#1 542732321 542732320 542732319 542732318 542732317 191605131" id="route56" />
    <route edges="35978089#0 35978089#1 35978089#2 1161326868 960705969#0 960705969#1 960705969#2 960705969#3 1254932727 1254932731 1254932733 -1254932734#1 -1254932734#0 -1192253461#0 1254932735 -1192253462#4 -1192253462#3 -1192253462#2 -1192253462#1 -1192253462#0 1254164632 1251241724 1160200441#1 23195995 622676076#0 28166525 240313133#1 240313133#2 365182713 191742038 191742039 191742035#2 191742035#3 191605132 194192325#1 542732321 542732320 542732319 28121198" id="route57" />
    <route edges="191742040#1 121390202#1 28142438#0 28142438#1 28142438#2 -121390545#0 28142439#0 28142439#1 28142439#2 28142439#3 28142439#4 102299241 479253674 28142433#0 28142433#1 -191742036 -365182713 -240313134 -240313133#1 -240313133#0 -622676076#0 622676077 946531060 967748229 1159435543 1159435542 1160200440 1192253462#0 1192253462#1 1192253462#2 1192253462#3 1192253462#4 1192574339#0 1192574339#1 1192253461#0 1192253461#1 1254932734#1 1160573566 1254932727 193166664#0 193166664#2 305323800 23584793#0 23584793#1 405724954#0 405724954#1 -405724955" id="route58" />
    <route edges="180710688#0 180710688#1 180710689 28142432#0 28142432#1 28142432#2 28142432#3 960216550 389406953 388081713 390222602 102299241 479253674 28142433#0 28142433#1 -191742036 -365182713 -240313134 -240313133#1 -240313133#0 -622676076#0 622676077 946531060 967748229 1159435543 622683999#0 622683999#1 32035148#0 32047800 -35847068#1 -35847068#0" id="route59" />
    <route edges="180710688#1 180710689 28142432#0 28142432#1 28142432#2 28142432#3 960216550 389406953 388081713 390222602 102299241 479253674 28142433#0 28142433#1 -191742036 -365182713 -240313134 -240313133#1 -240313133#0 -622676076#0 622676077 946531060 32047804 35847068#0 35847068#1 1285097180 174500774 390221189#0 390221189#1 200445697 528394548#0" id="route60" />
    <route edges="383116022#0 383116022#1 383116022#2 383116022#3 1192574339#1 1254932735 -1192253462#4 -1192253462#3 -1192253462#2 -1192253462#1 -1192253462#0 1254164632 1251241724 1160200441#1 23195995 622676076#0 28166525 240313133#1 240313133#2 365182713 191742036 28142435#0 28142435#1 479253675 388081714 388081712 389406954 389406953 28681366 321050002#0 321050002#1" id="route61" />
    <route edges="121390545#2 -28687158 28687160#0 28687160#1 28142438#2 -121390545#0 28142439#0 28142439#1 28142439#2 28142439#3 28142439#4 102299241 479253674 28142433#0 28142433#1 -191742036 -365182713 -240313134 -240313133#1 -240313133#0 -622676076#0 622676077 946531060 967748229 1159435543 1159435542 1160200440 1192253462#0 1192253462#1 1192253462#2 1192253462#3 1192253462#4 1192574339#0 1192574339#1 1192253461#0 -737507800#1 -737507800#0 737507800#0 737507800#1 -1192253461#0" id="route62" />
    <route edges="1192253461#0 -737507800#1 -737507800#0 737507800#0 737507800#1 -1192253461#0 1254932735 1192574339#0 -383116022#3 -383116022#2 -383116022#1 -32035141#1 -32035141#0 622683999#2 32047907#1" id="route63" />
    <route edges="365182713 191742036 28142435#0 28142435#1 479253675 388081714 388081712 389406954 389406953 388081713 390222602 102299241 479253674 28142433#0 28142433#1 -191742036 -365182713 -240313134 -240313133#1 -240313133#0 -622676076#0 622676077 946531060 967748229 1159435543 1159435542 1160200440 1254164632 32033947 35847131#0 35847131#1 1251240245 28401360#1 28401360#2 28401360#3 28401360#4 28401360#5 690163997#0" id="route64" />
    <route edges="180710688#1 180710689 28142432#0 28142432#1 28142432#2 28142432#3 960216550 389406953 388081713 390222602 102299241 479253674 28142433#0 28142433#1 -191742036 -365182713 -240313134 -240313133#1 -240313133#0 -622676076#0 622676077 946531060 967748229 1159435543 622683999#0 622683999#1 32035148#0 32047800" id="route65" />
    <route edges="-35847131#1 -35847131#0 32034491 1160200441#1 967748228 946531060 967748229 1159435543 1159435542 1160200440 1192253462#0 1192253462#1 1192253462#2 1192253462#3 1192253462#4 1192574339#0 1192574339#1 1192253461#0 1192253461#1 1254932734#1 1160573566 -960705969#3 -960705969#2 -960705969#1 -323342968#3 -323342968#2 -323342968#1 -323342968#0 -35978053#0" id="route66" />
    <route edges="191605132 191785968 29034347#0 388018850#1 194192326#1 1160417415 28140277#0 28140277#2 388081712 389406954 389406953 388081713 390222602 102299241 479253674 28142433#0 28142433#1 -191742036 -365182713 -240313134 -240313133#1 -240313133#0 -622676076#0 622676077 946531060 967748229 1159435543 1159435542 1160200440 1254164632 32033947 35847131#0 35847131#1 -1251240246" id="route67" />
    <route edges="174500828#2 1160200440 1254164632 1251241724 1160200441#1 23195995 622676076#0 28166525 240313133#1 240313133#2 365182713 191742036 28142435#0 28142435#1 479253675 388081714 388081712 960216551 28142431#1 29034475#1 29034475#2 -29034479#1" id="route68" />
    <route edges="32056569 405724955 -405724954#1 -405724954#0 -23584793#1 32048306 -193166664#2 -193166664#0 1254932731 1254932733 -1254932734#1 -1254932734#0 -1192253461#0 1254932735 -1192253462#4 -1192253462#3 -1192253462#2 -1192253462#1 -1192253462#0 1254164632 1251241724 1160200441#1 967748228 946531060 32047804 35847068#0 35847068#1 35847026#0 35847026#1 35847026#2 -619244002#2 -619244002#1 -619244002#0 -619244001 967748230 1251240246" id="route69" />
    <route edges="978138010 32047570 -32035141#0 174500828#1 174500828#2 1160200440 1192253462#0" id="route70" />
    <route edges="690163991#0 690163991#1 -690163991#1 -690163991#0 -365182712 -688182343#1 -688182343#0 690163989 1254932732 -193166668#4 -193166668#3 -193166668#2 -193166668#1 -193166668#0 1254932733 1160573566 -960705969#3 -960705969#2 -960705969#1 -323342968#3 -323342968#2 -323342968#1" id="route71" />
    <route edges="-28140744#0 28140744#0 28140744#1 28140744#2 28140744#3 191742040#0 191742040#1 121390202#1 28142438#0 28142438#1 -28687160#1 -28687160#0 28687158 -121390545#2" id="route72" />
    <route edges="-690163991#0 -365182712 -688182343#1 -688182343#0 690163989 -690163997#1 -690163997#0 -28401360#5 -28401360#4 -28401360#3 -28401360#2 -28401360#1 -28401360#0 -35847131#1 32034113 28166525 240313133#1 240313133#2 365182713 191742036 28142435#0 28142435#1 479253675 388081714 388081712 389406954 389406953 388081713 390222602 102299241 364642152#0 364642152#1 28142438#0 28142438#1 28142438#2 121390545#2 -28687158 28687160#0" id="route73" />
    <route edges="191605132 191785968 29034347#0 388018850#1 194192326#1 1160417415 28140277#0 28140277#2 388081712 389406954 389406953 388081713 390222602 102299241 479253674 28142433#0 28142433#1 -191742036 -365182713 -240313134 -240313133#1 -240313133#0 -622676076#0 622676077 946531060 967748229 1159435543 622683999#0 622683999#1 32035141#0" id="route74" />
    <route edges="35978089#0 35978089#1 35978089#2 1161326868 960705969#0 960705969#1 960705969#2 960705969#3 1254932727 1254932731 193166668#0 193166668#1 193166668#2 976185943#0 976185943#1 -23584793#2 -23584793#1" id="route75" />
    <route edges="121390545#2 -28687158 28687160#0 28687160#1 28142438#2 -121390545#0 28142439#0 28142439#1 28142439#2 28142439#3 28142439#4 102299241 479253674 28142433#0 28142433#1 -191742036 -365182713 -240313134 -240313133#1 -240313133#0 -622676076#0 622676077 946531060 967748229 1159435543 1159435542 1160200440 1254164632 32033947 35847131#0 35847131#1 -1251240246" id="route76" />
    <route edges="28140744#0 28140744#1 28140744#2 28140744#3 191742040#0 191742040#1 121390202#1 28142438#0 28142438#1 28142438#2 -121390545#0 28142439#0 28142439#1 28142439#2 28142439#3 28142439#4 102299241 479253674 390222603 479253675 388081714 388081712 960216551 28142431#1 29034475#1 180710690 191785969#0" id="route77" />
    <route edges="32047800 -35847068#1 -35847068#0 35847081 1159435543 1159435542 1160200440 1254164632 32033947 35847131#0 35847131#1 -1251240246 -967748230" id="route78" />
    <route edges="-32047570 976699097 976698608#2 383116022#0 -32035141#1 -32035141#0 32035148#0 32047800 35847026#0 35847026#1 35847026#2 -619244002#2 -619244002#1 -619244002#0 -619244001 967748230 1251240246 -35847131#1" id="route79" />
    <route edges="960705969#2 960705969#3 1254932727 193166664#0 193166664#2 305323800 23584793#0 23584793#1" id="route80" />
    <route edges="-528394548#0 -200445697 -390221189#1 -390221189#0 -174500774 -1285097180 -35847068#1 -35847068#0 35847081 1159435543 1159435542 1160200440 1254164632 1251241724 1160200441#1 23195995 622676076#0 28166525 240313133#1 240313133#2 365182713 191742038 191742039 191742035#2 191742035#3 191605132 194192325#1 542732321 542732320 542732319 28121198 191605143#2 191605143#3 -28140166" id="route81" />
    <route edges="-32056569 -405724954#1 -405724954#0 23584793#2 -976185943#1 -976185943#0 193166668#3 193166668#4 1254932730 688182343#0 688182343#1 365182712 690163991#0 690163991#1 -690163991#1 -690163991#0 -365182712" id="route82" />
    <route edges="622683999#2 32047907#1 978138010 976699097 976698608#2 383116022#0 383116022#1 383116022#2 383116022#3 1192574339#1 1192253461#0 1192253461#1 1254932734#1 1160573566 1254932727 193166664#0 193166664#2" id="route83" />
    <route edges="28140166 191605129#0 485716508 542732317 191605131 620619357#1 388018850#0 388018850#1 194192326#1 1160417415 28140277#0 28140277#2 388081712 389406954 389406953 388081713 390222602 102299241 479253674 28142433#0 28142433#1 -191742036 -365182713 -240313134 -240313133#1 -240313133#0 -622676076#0 622676077 946531060 967748229 1159435543 1159435542 1160200440 1254164632 32033947 35847131#0 35847131#1 1251240245 28401360#1 28401360#2 28401360#3 28401360#4 28401360#5 690163997#0 690163997#1 1254932732 1254932730 688182343#0 688182343#1 365182712 690163991#0 690163991#1 -690163991#1 -690163991#0" id="route84" />
    <route edges="191742012#0 191742012#1 191742013 -174500774 -1285097180 -32047800 -32035148#0 32035141#0 32035141#1 383116022#1 383116022#2 383116022#3" id="route85" />
    <route edges="-1172956880 288369008 1172956885 967748230 1251240246 -35847131#1 32034113 28166525 240313133#1 240313133#2 365182713 191742038 191742039 191742035#2 191742035#3" id="route86" />
    <route edges="288369008 1172956885 967748230 1251240246 -35847131#1 32034113 28166525 240313133#1 240313133#2 365182713 191742038 191742039 191742035#2 191742035#3 191605132 194192325#1 542732321 542732320 542732319 542732318 542732317 191605131 620619357#1" id="route87" />
    <route edges="28401360#2 28401360#3 28401360#4 28401360#5 690163997#0 690163997#1 1254932732 1254932730 690163989 -690163997#1 -690163997#0 -28401360#5 -28401360#4 -28401360#3 -28401360#2 -28401360#1 -28401360#0 -35847131#1 -35847131#0 32034491 1160200441#1 967748228 946531060 967748229 1159435543 622683999#0 622683999#1" id="route88" />
    <route edges="690163991#0 690163991#1 -690163991#1 -690163991#0 -365182712 -688182343#1 -688182343#0 690163989 -690163997#1 -690163997#0 -28401360#5 -28401360#4 -28401360#3 -28401360#2 -28401360#1 -28401360#0 -35847131#1 -35847131#0 32034491 1160200441#1 967748228 946531060 967748229 1159435543 622683999#0 622683999#1 622683999#2 32047907#1 978138010" id="route89" />