<?xml version="1.0" encoding="UTF-8"?>

<!-- generated on 2024-04-11 09:39:51 by Eclipse SUMO netedit Version 1.19.0
<configuration xmlns:xsi="http://www.w3.org/2001/XMLSchema-instance" xsi:noNamespaceSchemaLocation="http://sumo.dlr.de/xsd/neteditConfiguration.xsd">

    <input>
        <additional-files value="C:\Users\Denny\Università\Prove sumo\Esperimento portoghese\port_exp2.add.xml"/>
        <sumo-net-file value="C:\Users\Denny\Università\Prove sumo\Esperimento portoghese\port_exp2.net.xml"/>
    </input>

    <output>
        <output-file value="C:\Users\Denny\Università\Prove sumo\Esperimento portoghese\port_exp2.net.xml"/>
    </output>

    <processing>
        <geometry.min-radius.fix.railways value="false"/>
        <geometry.max-grade.fix value="false"/>
        <offset.disable-normalization value="true"/>
        <lefthand value="0"/>
    </processing>

    <junctions>
        <no-turnarounds value="true"/>
        <junctions.corner-detail value="5"/>
        <junctions.limit-turn-speed value="5.50"/>
        <rectangular-lane-cut value="0"/>
    </junctions>

    <pedestrian>
        <walkingareas value="0"/>
    </pedestrian>

</configuration>
-->

<net version="1.16" junctionCornerDetail="5" limitTurnSpeed="5.50" xmlns:xsi="http://www.w3.org/2001/XMLSchema-instance" xsi:noNamespaceSchemaLocation="http://sumo.dlr.de/xsd/net_file.xsd">

    <location netOffset="0.00,0.00" convBoundary="-137.50,-75.00,137.50,0.00" origBoundary="-10000000000.00,-10000000000.00,10000000000.00,10000000000.00" projParameter="!"/>

    <edge id=":J2_0" function="internal">
        <lane id=":J2_0_0" index="0" speed="13.89" length="20.80" shape="10.40,4.80 -10.40,4.80"/>
        <lane id=":J2_0_1" index="1" speed="13.89" length="20.80" shape="10.40,1.60 -10.40,1.60"/>
    </edge>
    <edge id=":J2_2" function="internal">
        <lane id=":J2_2_0" index="0" speed="6.51" length="9.03" shape="4.80,-10.40 5.15,-7.95 6.20,-6.20 7.95,-5.15 10.40,-4.80"/>
        <lane id=":J2_2_1" index="1" speed="7.33" length="11.73" shape="4.80,-10.40 5.15,-6.55 6.20,-3.80 7.95,-2.15 10.40,-1.60"/>
    </edge>
    <edge id=":J2_4" function="internal">
        <lane id=":J2_4_0" index="0" speed="9.84" length="21.99" shape="1.60,-10.40 0.85,-3.75 -1.40,1.00 -5.15,3.85 -10.40,4.80"/>
        <lane id=":J2_4_1" index="1" speed="9.26" length="19.35" shape="1.60,-10.40 0.85,-5.15 -1.40,-1.40 -5.15,0.85 -10.40,1.60"/>
    </edge>
    <edge id=":J2_6" function="internal">
        <lane id=":J2_6_0" index="0" speed="6.51" length="9.03" shape="-10.40,-4.80 -7.95,-5.15 -6.20,-6.20 -5.15,-7.95 -4.80,-10.40"/>
        <lane id=":J2_6_1" index="1" speed="7.33" length="11.73" shape="-10.40,-4.80 -6.55,-5.15 -3.80,-6.20 -2.15,-7.95 -1.60,-10.40"/>
    </edge>
    <edge id=":J2_8" function="internal">
        <lane id=":J2_8_0" index="0" speed="13.89" length="20.80" shape="-10.40,-4.80 10.40,-4.80"/>
        <lane id=":J2_8_1" index="1" speed="13.89" length="20.80" shape="-10.40,-1.60 10.40,-1.60"/>
    </edge>

    <edge id="-E0" from="J2" to="J1" priority="-1">
        <lane id="-E0_0" index="0" speed="13.89" length="127.10" shape="-10.40,4.80 -137.50,4.80"/>
        <lane id="-E0_1" index="1" speed="13.89" length="127.10" shape="-10.40,1.60 -137.50,1.60"/>
    </edge>
    <edge id="-E1" from="J3" to="J2" priority="-1">
        <lane id="-E1_0" index="0" speed="13.89" length="64.60" shape="4.80,-75.00 4.80,-10.40"/>
        <lane id="-E1_1" index="1" speed="13.89" length="64.60" shape="1.60,-75.00 1.60,-10.40"/>
    </edge>
    <edge id="-E2" from="J4" to="J2" priority="-1">
        <lane id="-E2_0" index="0" speed="13.89" length="127.10" shape="137.50,4.80 10.40,4.80"/>
        <lane id="-E2_1" index="1" speed="13.89" length="127.10" shape="137.50,1.60 10.40,1.60"/>
    </edge>
    <edge id="E0" from="J1" to="J2" priority="-1">
        <lane id="E0_0" index="0" speed="13.89" length="127.10" shape="-137.50,-4.80 -10.40,-4.80"/>
        <lane id="E0_1" index="1" speed="13.89" length="127.10" shape="-137.50,-1.60 -10.40,-1.60"/>
    </edge>
    <edge id="E1" from="J2" to="J3" priority="-1">
        <lane id="E1_0" index="0" speed="13.89" length="64.60" shape="-4.80,-10.40 -4.80,-75.00"/>
        <lane id="E1_1" index="1" speed="13.89" length="64.60" shape="-1.60,-10.40 -1.60,-75.00"/>
    </edge>
    <edge id="E2" from="J2" to="J4" priority="-1">
        <lane id="E2_0" index="0" speed="13.89" length="127.10" shape="10.40,-4.80 137.50,-4.80"/>
        <lane id="E2_1" index="1" speed="13.89" length="127.10" shape="10.40,-1.60 137.50,-1.60"/>
    </edge>

    <tlLogic id="J2" type="static" programID="0" offset="0">
        <phase duration="43" state="GGrrrrGGGG" next="1"/>
        <phase duration="3"  state="YYrrrrYYYY" next="2"/>
        <phase duration="3"  state="rrrrrrrrrr" next="3"/>
        <phase duration="58" state="rrGGGGrrrr" next="4"/>
        <phase duration="3"  state="rrYYYYrrrr" next="5"/>
        <phase duration="4"  state="rrrrrrrrrr" next="0"/>
    </tlLogic>
    <tlLogic id="J2" type="static" programID="1" offset="0">
        <phase duration="1000000" state="GGrrrrGGGG" next="1"/>
        <phase duration="3"  state="YYrrrrYYYY" next="2"/>
        <phase duration="3"  state="rrrrrrrrrr" next="3"/>
        <phase duration="1000000" state="rrGGGGrrrr" next="4"/>
        <phase duration="3"  state="rrYYYYrrrr" next="5"/>
        <phase duration="4"  state="rrrrrrrrrr" next="0"/>
    </tlLogic>

    <junction id="J1" type="dead_end" x="-137.50" y="0.00" incLanes="-E0_0 -E0_1" intLanes="" shape="-137.50,0.00 -137.50,6.40 -137.50,0.00" rightOfWay="edgePriority"/>
    <junction id="J2" type="traffic_light" x="0.00" y="0.00" incLanes="-E2_0 -E2_1 -E1_0 -E1_1 E0_0 E0_1" intLanes=":J2_0_0 :J2_0_1 :J2_2_0 :J2_2_1 :J2_4_0 :J2_4_1 :J2_6_0 :J2_6_1 :J2_8_0 :J2_8_1" shape="10.40,6.40 10.40,-6.40 8.18,-6.84 7.40,-7.40 6.84,-8.18 6.51,-9.18 6.40,-10.40 -6.40,-10.40 -6.84,-8.18 -7.40,-7.40 -8.18,-6.84 -9.18,-6.51 -10.40,-6.40 -10.40,6.40">
        <request index="0" response="0000000000" foes="0000110000" cont="0"/>
        <request index="1" response="0000000000" foes="0000110000" cont="0"/>
        <request index="2" response="1100000000" foes="1100000000" cont="0"/>
        <request index="3" response="1100000000" foes="1100000000" cont="0"/>
        <request index="4" response="1100000011" foes="1100000011" cont="0"/>
        <request index="5" response="1100000011" foes="1100000011" cont="0"/>
        <request index="6" response="0000000000" foes="0000000000" cont="0"/>
        <request index="7" response="0000000000" foes="0000000000" cont="0"/>
        <request index="8" response="0000000000" foes="0000111100" cont="0"/>
        <request index="9" response="0000000000" foes="0000111100" cont="0"/>
    </junction>
    <junction id="J3" type="dead_end" x="0.00" y="-75.00" incLanes="E1_0 E1_1" intLanes="" shape="0.00,-75.00 -6.40,-75.00 0.00,-75.00"/>
    <junction id="J4" type="dead_end" x="137.50" y="0.00" incLanes="E2_0 E2_1" intLanes="" shape="137.50,0.00 137.50,-6.40 137.50,0.00"/>

    <connection from="-E1" to="E2" fromLane="0" toLane="0" via=":J2_2_0" tl="J2" linkIndex="2" dir="r" state="o"/>
    <connection from="-E1" to="E2" fromLane="0" toLane="1" via=":J2_2_1" tl="J2" linkIndex="3" dir="r" state="o"/>
    <connection from="-E1" to="-E0" fromLane="1" toLane="0" via=":J2_4_0" tl="J2" linkIndex="4" dir="l" state="o"/>
    <connection from="-E1" to="-E0" fromLane="1" toLane="1" via=":J2_4_1" tl="J2" linkIndex="5" dir="l" state="o"/>
    <connection from="-E2" to="-E0" fromLane="0" toLane="0" via=":J2_0_0" tl="J2" linkIndex="0" dir="s" state="O"/>
    <connection from="-E2" to="-E0" fromLane="1" toLane="1" via=":J2_0_1" tl="J2" linkIndex="1" dir="s" state="O"/>
    <connection from="E0" to="E1" fromLane="0" toLane="0" via=":J2_6_0" tl="J2" linkIndex="6" dir="r" state="O"/>
    <connection from="E0" to="E1" fromLane="0" toLane="1" via=":J2_6_1" tl="J2" linkIndex="7" dir="r" state="O"/>
    <connection from="E0" to="E2" fromLane="0" toLane="0" via=":J2_8_0" tl="J2" linkIndex="8" dir="s" state="O"/>
    <connection from="E0" to="E2" fromLane="1" toLane="1" via=":J2_8_1" tl="J2" linkIndex="9" dir="s" state="O"/>

    <connection from=":J2_0" to="-E0" fromLane="0" toLane="0" dir="s" state="M"/>
    <connection from=":J2_0" to="-E0" fromLane="1" toLane="1" dir="s" state="M"/>
    <connection from=":J2_2" to="E2" fromLane="0" toLane="0" dir="r" state="M"/>
    <connection from=":J2_2" to="E2" fromLane="1" toLane="1" dir="r" state="M"/>
    <connection from=":J2_4" to="-E0" fromLane="0" toLane="0" dir="l" state="M"/>
    <connection from=":J2_4" to="-E0" fromLane="1" toLane="1" dir="l" state="M"/>
    <connection from=":J2_6" to="E1" fromLane="0" toLane="0" dir="r" state="M"/>
    <connection from=":J2_6" to="E1" fromLane="1" toLane="1" dir="r" state="M"/>
    <connection from=":J2_8" to="E2" fromLane="0" toLane="0" dir="s" state="M"/>
    <connection from=":J2_8" to="E2" fromLane="1" toLane="1" dir="s" state="M"/>

</net>
