<?xml version="1.0" ?>
<routes>
    <route id="route1" edges="E0 E1"/>
    <route id="route2" edges="E0 E2"/>
    <route id="route3" edges="-E2 -E0"/>
    <route id="route4" edges="-E1 -E0"/>
    <route id="route5" edges="-E1 E2"/>
    <vType id="vtype-vehicle171" length="5.9967964145919" mass="1517.7004298351035" accel="2.5504832301000686" decel="2.265645951842598" emergencyDecel="6.1253340056941115" minGap="8.473996928965697" vClass="passenger" emissionClass="HBEFA4/PC_diesel_Euro-6ab" color="#00BFFF" guiShape="passenger/sedan"/>
    <vType id="vtype-vehicle106" length="3.486868996604553" mass="1601.8337816454466" accel="2.1" decel="2.855112445859156" emergencyDecel="3.8790416698684846" minGap="4.6626506301517665" vClass="passenger" emissionClass="HBEFA4/PC_diesel_Euro-4_(DPF)" color="#00BFFF" guiShape="passenger/sedan"/>
    <vType id="vtype-vehicle276" length="4.033266778451733" mass="3211.3298500240626" accel="2.1" decel="5.065800554922012" emergencyDecel="5.901364421811946" minGap="8.828147583142485" vClass="delivery" emissionClass="HBEFA4/LCV_diesel_N1-II_Euro-6ab" color="#DC143C" guiShape="delivery"/>
    <vType id="vtype-vehicle291" length="4.5470413010324275" mass="3260.8027882325237" accel="2.1" decel="2.277499156707589" emergencyDecel="6.248929672625549" minGap="5.692953913314126" vClass="delivery" emissionClass="HBEFA4/LCV_diesel_N1-II_Euro-4" color="#DC143C" guiShape="delivery"/>
    <vType id="vtype-vehicle306" length="5.34849441435181" mass="2953.490979675159" accel="5.043993128228813" decel="3.639052741864743" emergencyDecel="6.732152450985891" minGap="7.15912840042587" vClass="delivery" emissionClass="HBEFA4/LCV_diesel_N1-II_Euro-6ab" color="#DC143C" guiShape="delivery"/>
    <vType id="vtype-vehicle250" length="4.415693100186447" mass="2476.2618589315102" accel="5.3857074497778115" decel="2.010242313467051" emergencyDecel="5.907025562550967" minGap="9.254104567530913" vClass="passenger" emissionClass="HBEFA4/PC_diesel_Euro-5" color="#8A2BE2" guiShape="passenger/hatchback"/>
    <vType id="vtype-vehicle111" length="4.979442141246503" mass="2007.4905133862183" accel="2.1" decel="5.067728339159959" emergencyDecel="7.121206756493902" minGap="7.94497702923202" vClass="passenger" emissionClass="HBEFA4/PC_diesel_Euro-5" color="#00BFFF" guiShape="passenger/sedan"/>
    <vType id="vtype-vehicle203" length="5.676363252428018" mass="1849.5639406910768" accel="4.743789266943638" decel="3.9667928844987554" emergencyDecel="5.872729573454348" minGap="5.482122168853378" vClass="passenger" emissionClass="HBEFA4/PC_diesel_Euro-4_(DPF)" color="#8A2BE2" guiShape="passenger/hatchback"/>
    <vType id="vtype-vehicle29" length="3.2706833805431246" mass="1539.3837652896257" accel="2.1" decel="4.429658562614268" emergencyDecel="6.541340887765678" minGap="9.545280516972209" vClass="passenger" emissionClass="HBEFA4/PC_petrol_Euro-3" color="#FFFF00" guiShape="passenger/sedan"/>
    <vType id="vtype-vehicle308" length="4.470373529532883" mass="3009.9221907721735" accel="2.2373106343444604" decel="5.808828443701586" emergencyDecel="3.4758826809614547" minGap="6.467990979988284" vClass="delivery" emissionClass="HBEFA4/LCV_diesel_N1-II_convlt_1986" color="#DC143C" guiShape="delivery"/>
    <vType id="vtype-vehicle300" length="4.674277233923883" mass="3216.395433250855" accel="3.348269555224091" decel="1.6341118929635827" emergencyDecel="6.931383057252777" minGap="3.268842728771337" vClass="delivery" emissionClass="HBEFA4/LCV_diesel_N1-II_Euro-4" color="#DC143C" guiShape="delivery"/>
    <vType id="vtype-vehicle169" length="6.094747937985959" mass="1456.3474720549211" accel="3.4993143390012325" decel="4.453400550841035" emergencyDecel="5.39674021756814" minGap="12.36369799121099" vClass="passenger" emissionClass="HBEFA4/PC_diesel_Euro-4_(DPF)" color="#00BFFF" guiShape="passenger/sedan"/>
    <vType id="vtype-vehicle72" length="4.569811773514424" mass="1885.8642497607345" accel="2.1" decel="1.667534444919254" emergencyDecel="6.664031610073044" minGap="9.4438042040493" vClass="passenger" emissionClass="HBEFA4/PC_diesel_Euro-4_(DPF)" color="#00BFFF" guiShape="passenger/sedan"/>
    <vType id="vtype-vehicle31" length="4.654689743919869" mass="1652.808668499079" accel="2.1" decel="1.9289643228314437" emergencyDecel="5.849009966568289" minGap="7.293221083524998" vClass="passenger" emissionClass="HBEFA4/PC_petrol_Euro-6ab" color="#FFFF00" guiShape="passenger/sedan"/>
    <vType id="vtype-vehicle52" length="3.8792300218216087" mass="1414.6119257281903" accel="5.22262137680886" decel="4.829046585493723" emergencyDecel="6.398095648312114" minGap="9.469691470498212" vClass="passenger" emissionClass="HBEFA4/PC_petrol_Euro-6ab" color="#FFFF00" guiShape="passenger/sedan"/>
    <vType id="vtype-vehicle40" length="3.631192590322958" mass="1753.2753600754422" accel="2.1" decel="2.0566689589985794" emergencyDecel="4.6078000344943515" minGap="7.271404683164319" vClass="passenger" emissionClass="HBEFA4/PC_petrol_Euro-6ab" color="#FFFF00" guiShape="passenger/sedan"/>
    <vType id="vtype-vehicle317" length="5.372589985018301" mass="3107.0931957714656" accel="2.4981524235565393" decel="2.4861670816797794" emergencyDecel="5.597983913016833" minGap="8.898616758553242" vClass="delivery" emissionClass="HBEFA4/LCV_diesel_N1-II_Euro-6ab" color="#DC143C" guiShape="delivery"/>
    <vType id="vtype-vehicle217" length="3.746800445052644" mass="2111.141959409178" accel="3.9685311171857514" decel="3.7940106290027713" emergencyDecel="4.765174148099254" minGap="9.897380981052986" vClass="passenger" emissionClass="HBEFA4/PC_diesel_Euro-6ab" color="#8A2BE2" guiShape="passenger/hatchback"/>
    <vType id="vtype-vehicle207" length="4.746771579766832" mass="2006.3241140142593" accel="2.1" decel="4.1864621422624415" emergencyDecel="6.630054945262601" minGap="7.204786116341837" vClass="passenger" emissionClass="HBEFA4/PC_diesel_Euro-6ab" color="#8A2BE2" guiShape="passenger/hatchback"/>
    <vType id="vtype-vehicle113" length="4.794960497876686" mass="1525.3960600907249" accel="2.1" decel="3.0449821487056625" emergencyDecel="5.8674591742648685" minGap="10.138572785740735" vClass="passenger" emissionClass="HBEFA4/PC_diesel_Euro-5" color="#00BFFF" guiShape="passenger/sedan"/>
    <vType id="vtype-vehicle9" length="6.35182603681405" mass="1731.2549381700096" accel="2.1" decel="2.6344165039914973" emergencyDecel="4.731922724141011" minGap="7.417777511094344" vClass="passenger" emissionClass="HBEFA4/PC_petrol_Euro-6ab" color="#FFFF00" guiShape="passenger/sedan"/>
    <vType id="vtype-vehicle321" length="6.562629044266924" mass="7722.62489219106" accel="5.723609210400856" decel="3.7514463629559724" emergencyDecel="6.178947456740624" minGap="8.69899904857034" vClass="delivery" emissionClass="HBEFA4/RT_gt7_5-12t_80ties" color="#FFFFFF" guiShape="delivery"/>
    <vType id="vtype-vehicle43" length="4.660166849515017" mass="1430.0702861125712" accel="2.1" decel="3.3461853916538127" emergencyDecel="6.546011945730556" minGap="7.75834993327898" vClass="passenger" emissionClass="HBEFA4/PC_petrol_Euro-4" color="#FFFF00" guiShape="passenger/sedan"/>
    <vType id="vtype-vehicle172" length="5.088454998642617" mass="1450.6885008670927" accel="5.6577425921305124" decel="0.7741863530590041" emergencyDecel="7.077251314027919" minGap="4.713895462627873" vClass="passenger" emissionClass="HBEFA4/PC_diesel_Euro-6ab" color="#00BFFF" guiShape="passenger/sedan"/>
    <vType id="vtype-vehicle284" length="4.736567734365653" mass="3005.916986329051" accel="3.341406488472445" decel="3.1417083781029334" emergencyDecel="5.660090161100003" minGap="4.549102735194657" vClass="delivery" emissionClass="HBEFA4/LCV_diesel_N1-II_convlt_1986" color="#DC143C" guiShape="delivery"/>
    <vType id="vtype-vehicle138" length="3.7516178357038394" mass="1618.95786762791" accel="2.480690870869017" decel="4.983669125193291" emergencyDecel="7.115879991672378" minGap="9.45595514039308" vClass="passenger" emissionClass="HBEFA4/PC_diesel_Euro-4_(DPF)" color="#00BFFF" guiShape="passenger/sedan"/>
    <vType id="vtype-vehicle214" length="5.725070760230488" mass="1959.9712851085144" accel="3.723381254124655" decel="1.596417275770909" emergencyDecel="5.683888446529777" minGap="5.197035103276315" vClass="passenger" emissionClass="HBEFA4/PC_diesel_Euro-5" color="#8A2BE2" guiShape="passenger/hatchback"/>
    <vType id="vtype-vehicle310" length="4.325126294482798" mass="3158.084232815107" accel="4.09839819561039" decel="3.9322519241174914" emergencyDecel="5.388222272533985" minGap="6.168559393100685" vClass="delivery" emissionClass="HBEFA4/LCV_diesel_N1-II_Euro-1" color="#DC143C" guiShape="delivery"/>
    <vType id="vtype-vehicle208" length="5.016995182002003" mass="2105.1482271749587" accel="3.8986224629088158" decel="2.789493065192728" emergencyDecel="7.012860766413336" minGap="10.287793666797931" vClass="passenger" emissionClass="HBEFA4/PC_diesel_Euro-6ab" color="#8A2BE2" guiShape="passenger/hatchback"/>
    <vType id="vtype-vehicle11" length="4.607153307784912" mass="1854.241910524746" accel="2.683316809534375" decel="3.156415621594979" emergencyDecel="4.590676620029143" minGap="9.247381090994189" vClass="passenger" emissionClass="HBEFA4/PC_petrol_Euro-3" color="#FFFF00" guiShape="passenger/sedan"/>
    <vType id="vtype-vehicle68" length="5.049474622318405" mass="1599.8243663649907" accel="2.7585837738444083" decel="3.833945408614631" emergencyDecel="6.116370078030156" minGap="7.8393173474615425" vClass="passenger" emissionClass="HBEFA4/PC_diesel_Euro-3" color="#00BFFF" guiShape="passenger/sedan"/>
    <vType id="vtype-vehicle93" length="3.4214646380888034" mass="1528.2077052850314" accel="4.111783412399212" decel="2.3827518588593" emergencyDecel="5.013128114721558" minGap="9.182550017507234" vClass="passenger" emissionClass="HBEFA4/PC_diesel_Euro-6ab" color="#00BFFF" guiShape="passenger/sedan"/>
    <vType id="vtype-vehicle36" length="4.14334658082935" mass="1687.7678190903346" accel="2.1" decel="2.468920460782057" emergencyDecel="5.81983842339901" minGap="4.457800814270664" vClass="passenger" emissionClass="HBEFA4/PC_petrol_PreEuro_3WCat_1987-90" color="#FFFF00" guiShape="passenger/sedan"/>
    <vType id="vtype-vehicle120" length="6.302345849295554" mass="1945.1140197315772" accel="4.925535384504262" decel="3.1182403769174956" emergencyDecel="7.156706739362596" minGap="10.84883214480055" vClass="passenger" emissionClass="HBEFA4/PC_diesel_Euro-4_(DPF)" color="#00BFFF" guiShape="passenger/sedan"/>
    <vType id="vtype-vehicle143" length="5.3141834016398155" mass="1488.5773166655504" accel="3.7320775472760066" decel="0.2045457679941558" emergencyDecel="4.97107783915569" minGap="9.426779006411307" vClass="passenger" emissionClass="HBEFA4/PC_diesel_Euro-6ab" color="#00BFFF" guiShape="passenger/sedan"/>
    <vType id="vtype-vehicle170" length="4.294798503272156" mass="1347.9260983048457" accel="2.511559698330273" decel="3.958381777250988" emergencyDecel="4.615333102303555" minGap="4.677887843431142" vClass="passenger" emissionClass="HBEFA4/PC_diesel_Euro-5" color="#00BFFF" guiShape="passenger/sedan"/>
    <vType id="vtype-vehicle38" length="4.935691816300354" mass="1447.5930877153673" accel="4.215302728443633" decel="1.7733771603037383" emergencyDecel="4.168002331728125" minGap="5.0892212427107415" vClass="passenger" emissionClass="HBEFA4/PC_petrol_Euro-6ab" color="#FFFF00" guiShape="passenger/sedan"/>
    <vType id="vtype-vehicle78" length="5.051646767851967" mass="1418.3566991208293" accel="5.58448572651427" decel="3.921010351088499" emergencyDecel="6.987403788850553" minGap="10.20043818983487" vClass="passenger" emissionClass="HBEFA4/PC_diesel_Euro-6ab" color="#00BFFF" guiShape="passenger/sedan"/>
    <vType id="vtype-vehicle154" length="4.575463998437207" mass="1657.0756153324605" accel="4.04755897559178" decel="2.973969490454491" emergencyDecel="7.437986384704838" minGap="6.582530487583363" vClass="passenger" emissionClass="HBEFA4/PC_diesel_Euro-6ab" color="#00BFFF" guiShape="passenger/sedan"/>
    <vType id="vtype-vehicle118" length="6.372131826611469" mass="1939.5000933753206" accel="4.038211693280997" decel="0.9270357915149989" emergencyDecel="5.851954829121841" minGap="6.151661243222679" vClass="passenger" emissionClass="HBEFA4/PC_diesel_Euro-6ab" color="#00BFFF" guiShape="passenger/sedan"/>
    <vType id="vtype-vehicle148" length="4.213051314060792" mass="1315.8522709469232" accel="5.1880370138459995" decel="4.451591743736344" emergencyDecel="6.5424984790292795" minGap="4.894217883586846" vClass="passenger" emissionClass="HBEFA4/PC_diesel_Euro-6ab" color="#00BFFF" guiShape="passenger/sedan"/>
    <vType id="vtype-vehicle307" length="5.285369883908178" mass="3500" accel="2.1" decel="3.269214774402672" emergencyDecel="6.791693563399984" minGap="3.6784105164544303" vClass="delivery" emissionClass="HBEFA4/LCV_diesel_N1-II_convlt_1986" color="#DC143C" guiShape="delivery"/>
    <vType id="vtype-vehicle84" length="5.564831978049878" mass="1606.5801787261219" accel="5.635409630838728" decel="1.769231001796707" emergencyDecel="6.2915082322954365" minGap="9.609729365814086" vClass="passenger" emissionClass="HBEFA4/PC_diesel_Euro-5" color="#00BFFF" guiShape="passenger/sedan"/>
    <vType id="vtype-vehicle41" length="5.833644421922026" mass="1328.2791898554797" accel="2.1" decel="2.387650444142535" emergencyDecel="6.029388303191868" minGap="6.175565599742533" vClass="passenger" emissionClass="HBEFA4/PC_petrol_PreEuro_3WCat_1987-90" color="#FFFF00" guiShape="passenger/sedan"/>
    <vType id="vtype-vehicle209" length="4.67983454854169" mass="2110.1299761363243" accel="5.398799326649353" decel="3.850242630601796" emergencyDecel="5.707854667161987" minGap="4.430290464673753" vClass="passenger" emissionClass="HBEFA4/PC_diesel_Euro-6ab" color="#8A2BE2" guiShape="passenger/hatchback"/>
    <vType id="vtype-vehicle254" length="4.803976794901172" mass="1843.0680934204681" accel="2.1" decel="4.08508712706303" emergencyDecel="5.735803348020844" minGap="9.643274311099269" vClass="passenger" emissionClass="HBEFA4/PC_diesel_Euro-5" color="#8A2BE2" guiShape="passenger/hatchback"/>
    <vType id="vtype-vehicle264" length="5.267428746047445" mass="2116.086341629588" accel="2.1" decel="2.5404485577057296" emergencyDecel="7.036054056172117" minGap="8.95046016192397" vClass="passenger" emissionClass="HBEFA4/PC_diesel_Euro-5" color="#8A2BE2" guiShape="passenger/hatchback"/>
    <vType id="vtype-vehicle290" length="5.500131114824967" mass="2973.3875825760324" accel="6.315281943332514" decel="4.83855731842209" emergencyDecel="6.736080478826324" minGap="6.903609673098285" vClass="delivery" emissionClass="HBEFA4/LCV_diesel_N1-II_Euro-3" color="#DC143C" guiShape="delivery"/>
    <vType id="vtype-vehicle293" length="6.133399612525157" mass="2690.486215775785" accel="2.1" decel="4.32351015980679" emergencyDecel="7.626914383799527" minGap="7.1558685752661875" vClass="delivery" emissionClass="HBEFA4/LCV_diesel_N1-II_Euro-6ab" color="#DC143C" guiShape="delivery"/>
    <vType id="vtype-vehicle212" length="5.265464624385366" mass="1972.7545953041795" accel="2.5725638242562594" decel="3.7283615568874717" emergencyDecel="5.925249369387765" minGap="8.098895943176124" vClass="passenger" emissionClass="HBEFA4/PC_diesel_Euro-5" color="#8A2BE2" guiShape="passenger/hatchback"/>
    <vType id="vtype-vehicle273" length="4.329490473568226" mass="2059.1695829284095" accel="2.1" decel="3.127015771503041" emergencyDecel="8.351020590686097" minGap="8.30427823707069" vClass="passenger" emissionClass="HBEFA4/PC_diesel_Euro-5" color="#8A2BE2" guiShape="passenger/hatchback"/>
    <vType id="vtype-vehicle233" length="6.337736151879048" mass="2131.775278193327" accel="5.8134635282891445" decel="2.463175029039367" emergencyDecel="7.34577397688286" minGap="7.828384241009915" vClass="passenger" emissionClass="HBEFA4/PC_diesel_Euro-6ab" color="#8A2BE2" guiShape="passenger/hatchback"/>
    <vType id="vtype-vehicle314" length="4.584744971627732" mass="3048.6925743592396" accel="4.91590933018741" decel="3.689475582834555" emergencyDecel="4.515528557310706" minGap="4.965877605097045" vClass="delivery" emissionClass="HBEFA4/LCV_diesel_N1-II_Euro-3" color="#DC143C" guiShape="delivery"/>
    <vType id="vtype-vehicle57" length="4.260541364272941" mass="1638.1685923855975" accel="5.262865424669882" decel="2.7725300017296863" emergencyDecel="5.0602919769197" minGap="3.0114082696777063" vClass="passenger" emissionClass="HBEFA4/PC_petrol_Euro-5" color="#FFFF00" guiShape="passenger/sedan"/>
    <vType id="vtype-vehicle128" length="5.817926659080525" mass="1342.6139712805862" accel="3.6113797255167555" decel="2.243921527908733" emergencyDecel="5.8684734110428085" minGap="10.090690224423753" vClass="passenger" emissionClass="HBEFA4/PC_diesel_Euro-6ab" color="#00BFFF" guiShape="passenger/sedan"/>
    <vType id="vtype-vehicle247" length="6.274850963735221" mass="2110.782489737428" accel="4.225019559560101" decel="2.654408731520599" emergencyDecel="3.6079714705497454" minGap="8.116956098103966" vClass="passenger" emissionClass="HBEFA4/PC_diesel_Euro-4_(DPF)" color="#8A2BE2" guiShape="passenger/hatchback"/>
    <vType id="vtype-vehicle323" length="16.147353935143947" mass="17533.216665612443" accel="2.358028501353614" decel="3.769829105974372" emergencyDecel="6.10056583680102" minGap="5.516726958715511" vClass="bus" emissionClass="HBEFA4/UBus_Std_gt15-18t_Euro-VI_A-C" color="#7CFC00" guiShape="bus"/>
    <vType id="vtype-vehicle19" length="4.917482536291587" mass="1259.41051938097" accel="2.4259161465338144" decel="3.0555556307703906" emergencyDecel="5.9123048027648295" minGap="4.6534809420664995" vClass="passenger" emissionClass="HBEFA4/PC_petrol_Euro-6ab" color="#FFFF00" guiShape="passenger/sedan"/>
    <vType id="vtype-vehicle304" length="4.835949666703283" mass="3332.9458012687173" accel="4.770701354138603" decel="3.431835546940506" emergencyDecel="6.188545577418567" minGap="7.004123798980271" vClass="delivery" emissionClass="HBEFA4/LCV_diesel_N1-II_Euro-3" color="#DC143C" guiShape="delivery"/>
    <vType id="vtype-vehicle88" length="6.196701370944824" mass="1619.7624178776032" accel="2.1" decel="3.3041468741065096" emergencyDecel="4.816276211272513" minGap="5.450894287326742" vClass="passenger" emissionClass="HBEFA4/PC_diesel_Euro-4_(DPF)" color="#00BFFF" guiShape="passenger/sedan"/>
    <vType id="vtype-vehicle235" length="4.244796239405817" mass="2136.893832993644" accel="3.110343922230506" decel="3.0677553998809746" emergencyDecel="6.584647794659263" minGap="5.768366179809741" vClass="passenger" emissionClass="HBEFA4/PC_diesel_Euro-4_(DPF)" color="#8A2BE2" guiShape="passenger/hatchback"/>
    <vType id="vtype-vehicle236" length="5.924648174121318" mass="1734.3998266099352" accel="2.1" decel="4.0268290571869585" emergencyDecel="5.918246607558731" minGap="6.839693135599428" vClass="passenger" emissionClass="HBEFA4/PC_diesel_Euro-4_(DPF)" color="#8A2BE2" guiShape="passenger/hatchback"/>
    <vType id="vtype-vehicle262" length="6.160990591236073" mass="1830.9598853717787" accel="2.1" decel="2.9459749536001647" emergencyDecel="4.782563545276224" minGap="9.446003295219548" vClass="passenger" emissionClass="HBEFA4/PC_diesel_Euro-5" color="#8A2BE2" guiShape="passenger/hatchback"/>
    <vType id="vtype-vehicle305" length="5.490265649756777" mass="3011.393796343561" accel="2.1" decel="1.0671850046117337" emergencyDecel="7.124169992526732" minGap="6.514616648196513" vClass="delivery" emissionClass="HBEFA4/LCV_diesel_N1-II_Euro-3" color="#DC143C" guiShape="delivery"/>
    <vType id="vtype-vehicle53" length="6.155528945071968" mass="1733.0574345745288" accel="2.1" decel="1.8565974853562683" emergencyDecel="6.872947017742112" minGap="8.063297243033897" vClass="passenger" emissionClass="HBEFA4/PC_petrol_Euro-6ab" color="#FFFF00" guiShape="passenger/sedan"/>
    <vType id="vtype-vehicle27" length="5.481240267318346" mass="1453.8110814756888" accel="4.074272072160566" decel="3.136564507000993" emergencyDecel="4.937675051677957" minGap="10.83494320007263" vClass="passenger" emissionClass="HBEFA4/PC_petrol_Euro-2" color="#FFFF00" guiShape="passenger/sedan"/>
    <vType id="vtype-vehicle281" length="6.401987964572353" mass="2934.860084295654" accel="2.1" decel="2.6976798776683086" emergencyDecel="8.012242472513242" minGap="9.474930412507987" vClass="delivery" emissionClass="HBEFA4/LCV_diesel_N1-II_Euro-4" color="#DC143C" guiShape="delivery"/>
    <vType id="vtype-vehicle225" length="5.333000885251614" mass="1861.4539399943912" accel="8.402289031072927" decel="2.9028925814623756" emergencyDecel="6.03693743410974" minGap="8.284252498452355" vClass="passenger" emissionClass="HBEFA4/PC_diesel_Euro-4_(DPF)" color="#8A2BE2" guiShape="passenger/hatchback"/>
    <vType id="vtype-vehicle134" length="4.869640598561897" mass="1497.3571606196824" accel="6.110881628911251" decel="2.4860552402323126" emergencyDecel="5.112019379330622" minGap="8.00838231065685" vClass="passenger" emissionClass="HBEFA4/PC_diesel_Euro-6ab" color="#00BFFF" guiShape="passenger/sedan"/>
    <vType id="vtype-vehicle123" length="5.891601724034624" mass="1877.2430482632917" accel="2.265164160740091" decel="3.2740101720022095" emergencyDecel="6.87544469388314" minGap="5.54866985066593" vClass="passenger" emissionClass="HBEFA4/PC_diesel_Euro-5" color="#00BFFF" guiShape="passenger/sedan"/>
    <vType id="vtype-vehicle315" length="5.232433781634912" mass="2891.9248210047444" accel="3.0942014676160308" decel="2.0460402327975955" emergencyDecel="5.564691412051982" minGap="7.213961647346322" vClass="delivery" emissionClass="HBEFA4/LCV_diesel_N1-II_Euro-6ab" color="#DC143C" guiShape="delivery"/>
    <vType id="vtype-vehicle69" length="4.6750734566706935" mass="1577.323081471173" accel="2.1" decel="1.958899118620075" emergencyDecel="5.111601260761465" minGap="5.015043153992714" vClass="passenger" emissionClass="HBEFA4/PC_diesel_Euro-5" color="#00BFFF" guiShape="passenger/sedan"/>
    <vType id="vtype-vehicle130" length="5.637114238578213" mass="1575.03207760452" accel="2.1" decel="1.7648423394577657" emergencyDecel="6.194334782532772" minGap="8.767394053221441" vClass="passenger" emissionClass="HBEFA4/PC_diesel_Euro-5" color="#00BFFF" guiShape="passenger/sedan"/>
    <vType id="vtype-vehicle50" length="3.97224840779296" mass="1273.8300595605604" accel="2.1" decel="1.9016495015874997" emergencyDecel="5.262826947684644" minGap="3.593718026908376" vClass="passenger" emissionClass="HBEFA4/PC_petrol_Euro-6ab" color="#FFFF00" guiShape="passenger/sedan"/>
    <vType id="vtype-vehicle0" length="6.259436019818628" mass="1579.678113796354" accel="5.820097412703497" decel="3.62415464026593" emergencyDecel="7.6767958046635725" minGap="4.101794268377498" vClass="passenger" emissionClass="HBEFA4/PC_petrol_Euro-3" color="#FFFF00" guiShape="passenger/sedan"/>
    <vType id="vtype-vehicle176" length="3.9832352864019054" mass="1868.3327083140293" accel="2.1" decel="3.218402351616764" emergencyDecel="4.020998086641043" minGap="9.529764116456358" vClass="passenger" emissionClass="HBEFA4/PC_diesel_Euro-5" color="#00BFFF" guiShape="passenger/sedan"/>
    <vType id="vtype-vehicle318" length="5.506464472217491" mass="3223.2718484134575" accel="2.1" decel="2.886727388431609" emergencyDecel="7.425727620559629" minGap="7.094993072873442" vClass="delivery" emissionClass="HBEFA4/LCV_diesel_N1-II_convlt_1986" color="#DC143C" guiShape="delivery"/>
    <vType id="vtype-vehicle248" length="5.924137811710675" mass="2548.4074870398986" accel="6.435408582221534" decel="3.5466701745694373" emergencyDecel="7.136837613098971" minGap="6.890597558659279" vClass="passenger" emissionClass="HBEFA4/PC_diesel_Euro-4_(DPF)" color="#8A2BE2" guiShape="passenger/hatchback"/>
    <vType id="vtype-vehicle119" length="4.072524388054593" mass="1748.6455395363878" accel="2.44511033822332" decel="4.541699928185658" emergencyDecel="4.841206133218366" minGap="4.701671952689729" vClass="passenger" emissionClass="HBEFA4/PC_diesel_Euro-3" color="#00BFFF" guiShape="passenger/sedan"/>
    <vType id="vtype-vehicle173" length="3.9133711409923535" mass="1803.6387293091852" accel="2.1" decel="1.376160066044176" emergencyDecel="5.3753664284264415" minGap="6.22539028000031" vClass="passenger" emissionClass="HBEFA4/PC_diesel_Euro-3" color="#00BFFF" guiShape="passenger/sedan"/>
    <vType id="vtype-vehicle115" length="3.7678293074578493" mass="1497.7464538848117" accel="4.073084923611226" decel="1.998958733934869" emergencyDecel="6.136194189726386" minGap="6.184903887776458" vClass="passenger" emissionClass="HBEFA4/PC_diesel_Euro-6ab" color="#00BFFF" guiShape="passenger/sedan"/>
    <vType id="vtype-vehicle200" length="5.623314315348429" mass="2103.0555252985423" accel="2.1" decel="3.40112377429666" emergencyDecel="6.540588097579752" minGap="7.4174816464948075" vClass="passenger" emissionClass="HBEFA4/PC_diesel_Euro-4_(DPF)" color="#8A2BE2" guiShape="passenger/hatchback"/>
    <vType id="vtype-vehicle249" length="3.446512127948738" mass="1840.890901018779" accel="2.20675871663493" decel="3.7751786483260066" emergencyDecel="5.166806202755999" minGap="7.887427571280305" vClass="passenger" emissionClass="HBEFA4/PC_diesel_Euro-6ab" color="#8A2BE2" guiShape="passenger/hatchback"/>
    <vType id="vtype-vehicle20" length="3.547065110411447" mass="1580.8033190397741" accel="5.270217180298239" decel="4.56993937376744" emergencyDecel="5.222361971564854" minGap="5.072993466657128" vClass="passenger" emissionClass="HBEFA4/PC_petrol_Euro-5" color="#FFFF00" guiShape="passenger/sedan"/>
    <vType id="vtype-vehicle55" length="4.699458028016359" mass="1590.0993492266796" accel="2.1" decel="1.636812764392746" emergencyDecel="5.565721609435851" minGap="8.721152422785597" vClass="passenger" emissionClass="HBEFA4/PC_petrol_PreEuro_3WCat_1987-90" color="#FFFF00" guiShape="passenger/sedan"/>
    <vType id="vtype-vehicle302" length="3.494755835421354" mass="3157.9776426531544" accel="5.699402547481011" decel="2.7842882882022035" emergencyDecel="4.586174753426061" minGap="8.805980065313163" vClass="delivery" emissionClass="HBEFA4/LCV_diesel_N1-II_Euro-4" color="#DC143C" guiShape="delivery"/>
    <vType id="vtype-vehicle74" length="4.91764725951323" mass="1392.9749463531207" accel="2.1" decel="2.4025324343500167" emergencyDecel="5.763216872987691" minGap="2.889965132166532" vClass="passenger" emissionClass="HBEFA4/PC_diesel_Euro-5" color="#00BFFF" guiShape="passenger/sedan"/>
    <vType id="vtype-vehicle234" length="3.925846298775242" mass="1989.871699355457" accel="4.978950132453567" decel="1.4181802938694716" emergencyDecel="7.27767774675139" minGap="7.601232369000359" vClass="passenger" emissionClass="HBEFA4/PC_diesel_Euro-6ab" color="#8A2BE2" guiShape="passenger/hatchback"/>
    <vType id="vtype-vehicle251" length="6.197791377268959" mass="1864.262525055115" accel="2.9333909486279497" decel="2.928443158952525" emergencyDecel="6.429799932089027" minGap="6.780497300276546" vClass="passenger" emissionClass="HBEFA4/PC_diesel_Euro-6ab" color="#8A2BE2" guiShape="passenger/hatchback"/>
    <vType id="vtype-vehicle280" length="4.122343149208203" mass="3051.9903539348093" accel="6.905565652357181" decel="3.478771062552482" emergencyDecel="6.017799046635378" minGap="11.208411691515867" vClass="delivery" emissionClass="HBEFA4/LCV_diesel_N1-II_convlt_1986" color="#DC143C" guiShape="delivery"/>
    <vType id="vtype-vehicle79" length="3.8011714772487912" mass="1559.283965996233" accel="2.1" decel="4.206079825717446" emergencyDecel="5.377793351211349" minGap="7.538665638100774" vClass="passenger" emissionClass="HBEFA4/PC_diesel_Euro-3" color="#00BFFF" guiShape="passenger/sedan"/>
    <vType id="vtype-vehicle266" length="4.908417861852021" mass="1977.1096603893063" accel="2.1" decel="4.105345787187125" emergencyDecel="5.425213165425795" minGap="3.813685955074249" vClass="passenger" emissionClass="HBEFA4/PC_diesel_Euro-5" color="#8A2BE2" guiShape="passenger/hatchback"/>
    <vType id="vtype-vehicle303" length="6.660670723181654" mass="3468.9800900496175" accel="4.671691208703523" decel="3.7367523874499984" emergencyDecel="6.79563824990512" minGap="4.576097983111623" vClass="delivery" emissionClass="HBEFA4/LCV_diesel_N1-II_Euro-2" color="#DC143C" guiShape="delivery"/>
    <vType id="vtype-vehicle229" length="4.582337013511879" mass="2205.471159490674" accel="3.4204553086911766" decel="1.6640007813459796" emergencyDecel="7.095013963823504" minGap="5.336881320708361" vClass="passenger" emissionClass="HBEFA4/PC_diesel_Euro-6ab" color="#8A2BE2" guiShape="passenger/hatchback"/>
    <vType id="vtype-vehicle288" length="5.388411147529403" mass="3310.2818833475103" accel="4.17251672946235" decel="3.2197642410272724" emergencyDecel="6.4353996758271945" minGap="7.40216369924978" vClass="delivery" emissionClass="HBEFA4/LCV_diesel_N1-II_Euro-2" color="#DC143C" guiShape="delivery"/>
    <vType id="vtype-vehicle294" length="6.036828300107075" mass="2982.861185081879" accel="2.1" decel="3.0683701464339412" emergencyDecel="6.494346873101544" minGap="6.405374875974904" vClass="delivery" emissionClass="HBEFA4/LCV_diesel_N1-II_Euro-4" color="#DC143C" guiShape="delivery"/>
    <vType id="vtype-vehicle135" length="4.589911030534266" mass="1422.9293721490153" accel="3.141812638269539" decel="3.842614007125218" emergencyDecel="6.740923668662082" minGap="9.59030239883302" vClass="passenger" emissionClass="HBEFA4/PC_diesel_Euro-5" color="#00BFFF" guiShape="passenger/sedan"/>
    <vType id="vtype-vehicle63" length="4.641068455227531" mass="1590.5657385462155" accel="3.316804266937023" decel="2.6736026065450917" emergencyDecel="5.810188043337261" minGap="8.826091367612609" vClass="passenger" emissionClass="HBEFA4/PC_petrol_Euro-4" color="#FFFF00" guiShape="passenger/sedan"/>