<?xml version="1.0" ?>
<routes>
    <route id="route1" edges="E0 E1"/>
    <route id="route2" edges="E0 E2"/>
    <route id="route3" edges="-E2 -E0"/>
    <route id="route4" edges="-E1 -E0"/>
    <route id="route5" edges="-E1 E2"/>
    <vType id="vtype-vehicle278" length="4.741707473077172" mass="2941.4298012375666" accel="2.1" decel="2.688677677063681" emergencyDecel="5.253847801815244" minGap="9.13475766311996" vClass="delivery" emissionClass="HBEFA4/LCV_diesel_N1-II_Euro-4" color="#DC143C" guiShape="delivery"/>
    <vType id="vtype-vehicle219" length="5.438158545778044" mass="1784.1697618119656" accel="7.946380334974845" decel="4.043668490722517" emergencyDecel="5.518969242309562" minGap="5.7713265081654415" vClass="passenger" emissionClass="HBEFA4/PC_diesel_Euro-5" color="#8A2BE2" guiShape="passenger/hatchback"/>
    <vType id="vtype-vehicle55" length="5.619861335926243" mass="1636.574675278822" accel="4.611173561181353" decel="3.5814731827157185" emergencyDecel="6.489446256332589" minGap="3.397470577300303" vClass="passenger" emissionClass="HBEFA4/PC_petrol_Euro-3" color="#FFFF00" guiShape="passenger/sedan"/>
    <vType id="vtype-vehicle38" length="4.734389043261691" mass="1729.9098648778372" accel="3.326102181886929" decel="2.4522149743383173" emergencyDecel="5.674346787371025" minGap="10.262937149299328" vClass="passenger" emissionClass="HBEFA4/PC_petrol_Euro-2" color="#FFFF00" guiShape="passenger/sedan"/>
    <vType id="vtype-vehicle107" length="5.456260582234909" mass="1825.632534804496" accel="2.1" decel="2.630443425405894" emergencyDecel="5.926067773979233" minGap="7.21877371924009" vClass="passenger" emissionClass="HBEFA4/PC_diesel_Euro-3" color="#00BFFF" guiShape="passenger/sedan"/>
    <vType id="vtype-vehicle218" length="3.3579648956947072" mass="2429.6288240548274" accel="4.977535745360349" decel="3.1496216063267832" emergencyDecel="6.030135288699303" minGap="6.414410673668776" vClass="passenger" emissionClass="HBEFA4/PC_diesel_Euro-2" color="#8A2BE2" guiShape="passenger/hatchback"/>
    <vType id="vtype-vehicle267" length="3.928954459174328" mass="2226.868030769373" accel="2.1" decel="3.30363781166259" emergencyDecel="6.340462730537" minGap="4.492306148715636" vClass="passenger" emissionClass="HBEFA4/PC_diesel_Euro-5" color="#8A2BE2" guiShape="passenger/hatchback"/>
    <vType id="vtype-vehicle300" length="5.386223612163729" mass="2781.8185902730406" accel="2.5384120951108953" decel="2.7947242268030856" emergencyDecel="5.087874931649603" minGap="7.143876864886554" vClass="delivery" emissionClass="HBEFA4/LCV_diesel_N1-II_Euro-1" color="#DC143C" guiShape="delivery"/>
    <vType id="vtype-vehicle289" length="6.370489411364268" mass="2762.39709500576" accel="2.7949708261664794" decel="2.810823429384376" emergencyDecel="6.051016768246031" minGap="9.621770859659815" vClass="delivery" emissionClass="HBEFA4/LCV_diesel_N1-II_Euro-5" color="#DC143C" guiShape="delivery"/>
    <vType id="vtype-vehicle4" length="4.192654140151718" mass="1741.5144649622814" accel="2.866982957093985" decel="3.8417011466431594" emergencyDecel="6.192569155004541" minGap="5.763322838217907" vClass="passenger" emissionClass="HBEFA4/PC_petrol_PreEuro_3WCat_1987-90" color="#FFFF00" guiShape="passenger/sedan"/>
    <vType id="vtype-vehicle62" length="4.286299764163096" mass="1237.4112099509703" accel="2.987821525336573" decel="2.8776006688248885" emergencyDecel="6.167121200247597" minGap="9.34862807588529" vClass="passenger" emissionClass="HBEFA4/PC_petrol_Euro-5" color="#FFFF00" guiShape="passenger/sedan"/>
    <vType id="vtype-vehicle23" length="5.67033056914261" mass="1581.5631034743208" accel="5.559219246244764" decel="2.457470819486801" emergencyDecel="4.8274709381354075" minGap="3.426035763640505" vClass="passenger" emissionClass="HBEFA4/PC_petrol_Euro-6ab" color="#FFFF00" guiShape="passenger/sedan"/>
    <vType id="vtype-vehicle11" length="3.6217520467386164" mass="1688.086903255141" accel="2.2085720030400746" decel="3.3798156578085354" emergencyDecel="4.062671017070587" minGap="6.445447595077661" vClass="passenger" emissionClass="HBEFA4/PC_petrol_Euro-6ab" color="#FFFF00" guiShape="passenger/sedan"/>
    <vType id="vtype-vehicle263" length="3.389990349966781" mass="2008.308865410767" accel="4.229071094341526" decel="3.466457589387526" emergencyDecel="6.030913384673679" minGap="6.743074960801895" vClass="passenger" emissionClass="HBEFA4/PC_diesel_Euro-4_(DPF)" color="#8A2BE2" guiShape="passenger/hatchback"/>
    <vType id="vtype-vehicle49" length="6.475730193421155" mass="1726.679930468723" accel="2.969539888454942" decel="3.6681388068490897" emergencyDecel="4.60099041490381" minGap="3.5974898113888334" vClass="passenger" emissionClass="HBEFA4/PC_petrol_Euro-2" color="#FFFF00" guiShape="passenger/sedan"/>
    <vType id="vtype-vehicle151" length="4.151375629432489" mass="1421.4463281119345" accel="6.03365334997971" decel="3.6038983062965513" emergencyDecel="6.834160735246714" minGap="6.936168237506787" vClass="passenger" emissionClass="HBEFA4/PC_diesel_Euro-6ab" color="#00BFFF" guiShape="passenger/sedan"/>
    <vType id="vtype-vehicle245" length="7.591599466666819" mass="2619.2121824731908" accel="6.167121303885727" decel="4.037754239441211" emergencyDecel="5.371934507075445" minGap="4.862632172293223" vClass="passenger" emissionClass="HBEFA4/PC_diesel_Euro-4_(DPF)" color="#8A2BE2" guiShape="passenger/hatchback"/>
    <vType id="vtype-vehicle248" length="6.345081015234692" mass="2163.2263682000216" accel="2.1" decel="2.662907292483002" emergencyDecel="7.186862377227872" minGap="10.494264628634491" vClass="passenger" emissionClass="HBEFA4/PC_diesel_Euro-5" color="#8A2BE2" guiShape="passenger/hatchback"/>
    <vType id="vtype-vehicle242" length="3.2909980874424596" mass="2199.980841938021" accel="2.118669079315236" decel="3.6771470961529897" emergencyDecel="6.322225109554616" minGap="6.731892680166935" vClass="passenger" emissionClass="HBEFA4/PC_diesel_Euro-1" color="#8A2BE2" guiShape="passenger/hatchback"/>
    <vType id="vtype-vehicle224" length="4.808371907566101" mass="2213.868136062062" accel="4.619476937453049" decel="5.146803406987433" emergencyDecel="5.920322022335063" minGap="5.3716897812622895" vClass="passenger" emissionClass="HBEFA4/PC_diesel_Euro-4_(DPF)" color="#8A2BE2" guiShape="passenger/hatchback"/>
    <vType id="vtype-vehicle230" length="5.986463255664089" mass="2336.1015701591796" accel="2.1" decel="1.8537582671909822" emergencyDecel="5.972694237240456" minGap="3.7139113784860123" vClass="passenger" emissionClass="HBEFA4/PC_diesel_Euro-3" color="#8A2BE2" guiShape="passenger/hatchback"/>
    <vType id="vtype-vehicle8" length="3.3687346536042835" mass="1357.5216253324475" accel="3.702644217483257" decel="4.664664550264579" emergencyDecel="5.2106415858688395" minGap="5.798867461627859" vClass="passenger" emissionClass="HBEFA4/PC_petrol_Euro-6ab" color="#FFFF00" guiShape="passenger/sedan"/>
    <vType id="vtype-vehicle60" length="2.543101892349219" mass="1588.5649385009372" accel="2.1" decel="2.726569563530804" emergencyDecel="4.671843406666781" minGap="7.37962919508396" vClass="passenger" emissionClass="HBEFA4/PC_petrol_PreEuro_3WCat_1987-90" color="#FFFF00" guiShape="passenger/sedan"/>
    <vType id="vtype-vehicle262" length="3.9584408581550266" mass="1925.0105016741675" accel="2.1" decel="4.374282570383189" emergencyDecel="7.6483780287989145" minGap="6.808350374366631" vClass="passenger" emissionClass="HBEFA4/PC_diesel_Euro-4_(DPF)" color="#8A2BE2" guiShape="passenger/hatchback"/>
    <vType id="vtype-vehicle318" length="6.63502619272513" mass="2903.3477262222223" accel="2.1" decel="2.4753726636017457" emergencyDecel="5.9298108146574675" minGap="4.454126789518611" vClass="delivery" emissionClass="HBEFA4/LCV_diesel_N1-II_Euro-1" color="#DC143C" guiShape="delivery"/>
    <vType id="vtype-vehicle250" length="3.942577572309693" mass="2355.504484051888" accel="4.307902345884195" decel="3.8167380770161685" emergencyDecel="7.133232608587309" minGap="7.620039076852885" vClass="passenger" emissionClass="HBEFA4/PC_diesel_Euro-5" color="#8A2BE2" guiShape="passenger/hatchback"/>
    <vType id="vtype-vehicle312" length="5.797314368142838" mass="3333.4643733501716" accel="5.2492112064714025" decel="1.5627916399808852" emergencyDecel="5.67821491840982" minGap="6.143974762615571" vClass="delivery" emissionClass="HBEFA4/LCV_diesel_N1-II_Euro-4" color="#DC143C" guiShape="delivery"/>
    <vType id="vtype-vehicle34" length="3.5623991898433927" mass="2012.977303941669" accel="2.9292757495623087" decel="2.3445317576419047" emergencyDecel="6.382269070901539" minGap="5.897878741495926" vClass="passenger" emissionClass="HBEFA4/PC_petrol_Euro-4" color="#FFFF00" guiShape="passenger/sedan"/>
    <vType id="vtype-vehicle273" length="4.546482198753113" mass="2028.1364060209394" accel="3.4485434003215754" decel="3.356355818784302" emergencyDecel="4.274715519237681" minGap="10.62826953117453" vClass="passenger" emissionClass="HBEFA4/PC_diesel_Euro-4_(DPF)" color="#8A2BE2" guiShape="passenger/hatchback"/>
    <vType id="vtype-vehicle162" length="4.469708620860774" mass="1364.1047567325072" accel="4.380713214806632" decel="2.0145395824845664" emergencyDecel="6.686217074346439" minGap="9.12304243822009" vClass="passenger" emissionClass="HBEFA4/PC_diesel_Euro-6ab" color="#00BFFF" guiShape="passenger/sedan"/>
    <vType id="vtype-vehicle316" length="4.552259750108146" mass="3331.113608837194" accel="3.499309571587549" decel="1.9755555218448282" emergencyDecel="7.612215422893704" minGap="3.94784868208989" vClass="delivery" emissionClass="HBEFA4/LCV_diesel_N1-II_Euro-1" color="#DC143C" guiShape="delivery"/>
    <vType id="vtype-vehicle27" length="4.038619362482731" mass="1696.1714532037086" accel="2.1" decel="1.907803125554012" emergencyDecel="5.186103496154647" minGap="3.2936239725840966" vClass="passenger" emissionClass="HBEFA4/PC_petrol_Euro-5" color="#FFFF00" guiShape="passenger/sedan"/>
    <vType id="vtype-vehicle305" length="5.501161448387452" mass="3500" accel="2.1" decel="4.3507415961735845" emergencyDecel="5.427257627671416" minGap="5.741612258714618" vClass="delivery" emissionClass="HBEFA4/LCV_diesel_N1-II_Euro-3" color="#DC143C" guiShape="delivery"/>
    <vType id="vtype-vehicle235" length="5.805351032353052" mass="1614.6502512748739" accel="2.1" decel="2.608941723552017" emergencyDecel="6.276441758822089" minGap="5.261243295693868" vClass="passenger" emissionClass="HBEFA4/PC_diesel_1986-1988" color="#8A2BE2" guiShape="passenger/hatchback"/>
    <vType id="vtype-vehicle90" length="4.769683423082107" mass="1398.4051302522812" accel="4.2877620852035845" decel="3.1151130105705476" emergencyDecel="5.632804796724399" minGap="10.392953288458834" vClass="passenger" emissionClass="HBEFA4/PC_diesel_Euro-6ab" color="#00BFFF" guiShape="passenger/sedan"/>
    <vType id="vtype-vehicle281" length="4.672490963872794" mass="2734.219344308376" accel="3.058592876172348" decel="2.1463548004789788" emergencyDecel="6.612184150847991" minGap="4.380505652757783" vClass="delivery" emissionClass="HBEFA4/LCV_diesel_N1-II_Euro-3" color="#DC143C" guiShape="delivery"/>
    <vType id="vtype-vehicle136" length="4.086905938762293" mass="1637.6947505802166" accel="5.745188148107568" decel="3.1895224658777033" emergencyDecel="6.689640195423574" minGap="9.925557345829919" vClass="passenger" emissionClass="HBEFA4/PC_diesel_Euro-6ab" color="#00BFFF" guiShape="passenger/sedan"/>
    <vType id="vtype-vehicle98" length="4.7080159836371225" mass="1417.299675777784" accel="6.005848589736778" decel="3.084326162531252" emergencyDecel="7.477525034781826" minGap="7.069590005871166" vClass="passenger" emissionClass="HBEFA4/PC_diesel_Euro-4_(DPF)" color="#00BFFF" guiShape="passenger/sedan"/>
    <vType id="vtype-vehicle30" length="3.8577903407135254" mass="1468.5970649983788" accel="2.1" decel="3.090595549973181" emergencyDecel="6.351710492521476" minGap="6.364463840163028" vClass="passenger" emissionClass="HBEFA4/PC_petrol_Euro-4" color="#FFFF00" guiShape="passenger/sedan"/>
    <vType id="vtype-vehicle158" length="4.023850662258815" mass="1423.4374139223546" accel="2.1" decel="4.093990755617435" emergencyDecel="5.732761813416351" minGap="5.228440635691054" vClass="passenger" emissionClass="HBEFA4/PC_diesel_Euro-6ab" color="#00BFFF" guiShape="passenger/sedan"/>
    <vType id="vtype-vehicle65" length="3.916044989768524" mass="1991.8149465988965" accel="2.921323804879499" decel="3.710952096760721" emergencyDecel="7.336629147550066" minGap="7.820491390772625" vClass="passenger" emissionClass="HBEFA4/PC_petrol_Euro-6ab" color="#FFFF00" guiShape="passenger/sedan"/>
    <vType id="vtype-vehicle210" length="6.375513696181002" mass="2106.3668730459144" accel="2.9877412007137147" decel="3.36291630767813" emergencyDecel="3.8881772303482323" minGap="6.409457631931749" vClass="passenger" emissionClass="HBEFA4/PC_diesel_Euro-4_(DPF)" color="#8A2BE2" guiShape="passenger/hatchback"/>
    <vType id="vtype-vehicle309" length="8.307118879137104" mass="3328.462081729292" accel="2.1" decel="2.4911497600707326" emergencyDecel="7.326737244869882" minGap="8.531245005414336" vClass="delivery" emissionClass="HBEFA4/LCV_diesel_N1-II_Euro-3" color="#DC143C" guiShape="delivery"/>
    <vType id="vtype-vehicle16" length="4.7310035328548405" mass="1823.1698936507626" accel="4.470417985558721" decel="4.043863314418622" emergencyDecel="6.413716193034666" minGap="6.567289317082164" vClass="passenger" emissionClass="HBEFA4/PC_petrol_Euro-3" color="#FFFF00" guiShape="passenger/sedan"/>
    <vType id="vtype-vehicle215" length="4.999972227235407" mass="2310.3377695866384" accel="4.365497912083866" decel="2.638871784231384" emergencyDecel="7.71644216716968" minGap="8.71460630355182" vClass="passenger" emissionClass="HBEFA4/PC_diesel_Euro-4_(DPF)" color="#8A2BE2" guiShape="passenger/hatchback"/>
    <vType id="vtype-vehicle131" length="2.4414475509028426" mass="1527.4063584868409" accel="2.1" decel="4.0332279127236434" emergencyDecel="4.605620375189778" minGap="7.776912613912817" vClass="passenger" emissionClass="HBEFA4/PC_diesel_Euro-5" color="#00BFFF" guiShape="passenger/sedan"/>
    <vType id="vtype-vehicle46" length="3.9748630619431413" mass="1220.9162466841885" accel="2.1" decel="3.8434491998968525" emergencyDecel="6.020996931714753" minGap="7.256307362620026" vClass="passenger" emissionClass="HBEFA4/PC_petrol_PreEuro_3WCat_1987-90" color="#FFFF00" guiShape="passenger/sedan"/>
    <vType id="vtype-vehicle221" length="5.562481761548701" mass="2412.641595743966" accel="2.877391509463295" decel="3.218400682394271" emergencyDecel="5.778984019963661" minGap="6.358884314878432" vClass="passenger" emissionClass="HBEFA4/PC_diesel_Euro-6ab" color="#8A2BE2" guiShape="passenger/hatchback"/>
    <vType id="vtype-vehicle111" length="5.302346517358444" mass="1467.051343397709" accel="5.1854526038852224" decel="3.3287399595112612" emergencyDecel="5.5489275535513904" minGap="10.054179137016773" vClass="passenger" emissionClass="HBEFA4/PC_diesel_Euro-6ab" color="#00BFFF" guiShape="passenger/sedan"/>
    <vType id="vtype-vehicle285" length="5.448589398260919" mass="3304.4239470819116" accel="2.1" decel="2.886000744850558" emergencyDecel="6.89584025384269" minGap="5.8519353450822615" vClass="delivery" emissionClass="HBEFA4/LCV_diesel_N1-II_convlt_1986" color="#DC143C" guiShape="delivery"/>
    <vType id="vtype-vehicle150" length="5.068678283694851" mass="1671.47685839529" accel="3.395567917097313" decel="4.044846346612922" emergencyDecel="6.381808612265955" minGap="7.467427727607888" vClass="passenger" emissionClass="HBEFA4/PC_diesel_1986-1988" color="#00BFFF" guiShape="passenger/sedan"/>
    <vType id="vtype-vehicle268" length="4.78037838496425" mass="1899.9946925725933" accel="4.440926605533058" decel="3.018377891014133" emergencyDecel="6.11826167030203" minGap="7.408943250906528" vClass="passenger" emissionClass="HBEFA4/PC_diesel_Euro-6ab" color="#8A2BE2" guiShape="passenger/hatchback"/>
    <vType id="vtype-vehicle272" length="4.9775999208298165" mass="2126.609511659595" accel="4.833463521163803" decel="3.446833762189801" emergencyDecel="6.499220746711823" minGap="6.085570673303832" vClass="passenger" emissionClass="HBEFA4/PC_diesel_Euro-6ab" color="#8A2BE2" guiShape="passenger/hatchback"/>
    <vType id="vtype-vehicle171" length="5.836631114557682" mass="1605.6901822520429" accel="4.129584381927192" decel="2.2066206959782755" emergencyDecel="6.614377719136959" minGap="6.825050616749146" vClass="passenger" emissionClass="HBEFA4/PC_diesel_1986-1988" color="#00BFFF" guiShape="passenger/sedan"/>
    <vType id="vtype-vehicle294" length="6.242581237338316" mass="2783.4970840567257" accel="4.964116027600852" decel="4.2545636801170845" emergencyDecel="6.5345392196544925" minGap="2.472099189623356" vClass="delivery" emissionClass="HBEFA4/LCV_diesel_N1-II_Euro-6ab" color="#DC143C" guiShape="delivery"/>
    <vType id="vtype-vehicle284" length="4.522313708672753" mass="2933.3868728958155" accel="2.994604347351299" decel="3.901531380456727" emergencyDecel="5.416762405828894" minGap="5.801025195711455" vClass="delivery" emissionClass="HBEFA4/LCV_diesel_N1-II_Euro-6ab" color="#DC143C" guiShape="delivery"/>
    <vType id="vtype-vehicle56" length="5.18723596076822" mass="1209.2452707995042" accel="3.939997866391431" decel="3.317563738725401" emergencyDecel="5.3707689403274115" minGap="7.568731728497054" vClass="passenger" emissionClass="HBEFA4/PC_petrol_Euro-5" color="#FFFF00" guiShape="passenger/sedan"/>
    <vType id="vtype-vehicle259" length="3.3172696807536015" mass="1798.226376221029" accel="2.9194741439315735" decel="2.8358935761497324" emergencyDecel="3.504420725818133" minGap="6.1505439078325574" vClass="passenger" emissionClass="HBEFA4/PC_diesel_Euro-6ab" color="#8A2BE2" guiShape="passenger/hatchback"/>
    <vType id="vtype-vehicle177" length="3.7913166662348208" mass="1953.3400769151303" accel="3.0096546819770316" decel="0.8182162340935091" emergencyDecel="7.057913266261539" minGap="9.322074186069742" vClass="passenger" emissionClass="HBEFA4/PC_diesel_Euro-6ab" color="#00BFFF" guiShape="passenger/sedan"/>
    <vType id="vtype-vehicle59" length="4.119361821722351" mass="1554.4499288864715" accel="6.593257890813116" decel="3.2027636719814288" emergencyDecel="5.4569024969421065" minGap="5.390177129650517" vClass="passenger" emissionClass="HBEFA4/PC_petrol_Euro-4" color="#FFFF00" guiShape="passenger/sedan"/>
    <vType id="vtype-vehicle257" length="6.7185468295620066" mass="2019.782560546144" accel="2.1901190307513145" decel="2.0914999722598955" emergencyDecel="6.794889485812557" minGap="5.8612568216157275" vClass="passenger" emissionClass="HBEFA4/PC_diesel_Euro-4_(DPF)" color="#8A2BE2" guiShape="passenger/hatchback"/>
    <vType id="vtype-vehicle228" length="4.501377192193035" mass="2217.7448563700686" accel="4.778833273919255" decel="3.024087036336881" emergencyDecel="4.554291853564087" minGap="10.228213936435413" vClass="passenger" emissionClass="HBEFA4/PC_diesel_Euro-6ab" color="#8A2BE2" guiShape="passenger/hatchback"/>
    <vType id="vtype-vehicle3" length="4.4801130532502835" mass="1669.0043024840015" accel="2.1" decel="2.962292302541206" emergencyDecel="5.003650294765254" minGap="6.051965601368398" vClass="passenger" emissionClass="HBEFA4/PC_petrol_PreEuro_3WCat_1987-90" color="#FFFF00" guiShape="passenger/sedan"/>
    <vType id="vtype-vehicle313" length="4.465869582601357" mass="3117.057655817966" accel="5.8481867170619655" decel="3.466076718584799" emergencyDecel="5.842583168154974" minGap="5.4535187855534915" vClass="delivery" emissionClass="HBEFA4/LCV_diesel_N1-II_Euro-5" color="#DC143C" guiShape="delivery"/>
    <vType id="vtype-vehicle101" length="4.641677181227218" mass="1063.3937413850813" accel="2.828216853181666" decel="4.520797352063061" emergencyDecel="5.27846401410809" minGap="6.991416526004193" vClass="passenger" emissionClass="HBEFA4/PC_diesel_Euro-4_(DPF)" color="#00BFFF" guiShape="passenger/sedan"/>
    <vType id="vtype-vehicle120" length="4.761517800983627" mass="1390.463785871129" accel="2.2096896906611847" decel="5.200033096979632" emergencyDecel="5.150996531030794" minGap="7.969574970110137" vClass="passenger" emissionClass="HBEFA4/PC_diesel_Euro-6ab" color="#00BFFF" guiShape="passenger/sedan"/>
    <vType id="vtype-vehicle240" length="4.6674070468708075" mass="2036.7849891933254" accel="2.2046356555485467" decel="3.4029048386785425" emergencyDecel="6.010596674252753" minGap="6.631525135866839" vClass="passenger" emissionClass="HBEFA4/PC_diesel_Euro-4_(DPF)" color="#8A2BE2" guiShape="passenger/hatchback"/>
    <vType id="vtype-vehicle226" length="5.236796559357277" mass="1857.466003588492" accel="3.5460603046927193" decel="3.795894284532294" emergencyDecel="5.69257150457836" minGap="8.755009682141292" vClass="passenger" emissionClass="HBEFA4/PC_diesel_Euro-5" color="#8A2BE2" guiShape="passenger/hatchback"/>
    <vType id="vtype-vehicle304" length="4.777249192855532" mass="2866.695697417918" accel="2.1" decel="3.05106859263576" emergencyDecel="3.853325502938117" minGap="6.892883179190887" vClass="delivery" emissionClass="HBEFA4/LCV_diesel_N1-II_Euro-6ab" color="#DC143C" guiShape="delivery"/>
    <vType id="vtype-vehicle94" length="2.4636989742335915" mass="1690.9471725283724" accel="4.943909302063009" decel="2.5199268349994735" emergencyDecel="6.6755583466318775" minGap="5.839364563609021" vClass="passenger" emissionClass="HBEFA4/PC_diesel_Euro-6ab" color="#00BFFF" guiShape="passenger/sedan"/>
    <vType id="vtype-vehicle124" length="5.759443624987766" mass="1615.7283410989828" accel="3.7110173058095777" decel="2.688657447121257" emergencyDecel="4.801923031239245" minGap="8.38381639262035" vClass="passenger" emissionClass="HBEFA4/PC_diesel_Euro-5" color="#00BFFF" guiShape="passenger/sedan"/>
    <vType id="vtype-vehicle246" length="4.124250355442205" mass="1847.605701080664" accel="3.426361352464016" decel="2.268670819155536" emergencyDecel="5.590620868553064" minGap="8.132567184526156" vClass="passenger" emissionClass="HBEFA4/PC_diesel_Euro-3" color="#8A2BE2" guiShape="passenger/hatchback"/>
    <vType id="vtype-vehicle106" length="5.062158805090712" mass="1759.1090164975094" accel="5.1254284466708135" decel="2.7002988438731195" emergencyDecel="7.720754981239657" minGap="5.792965659100735" vClass="passenger" emissionClass="HBEFA4/PC_diesel_Euro-6ab" color="#00BFFF" guiShape="passenger/sedan"/>
    <vType id="vtype-vehicle42" length="3.5958606373048174" mass="1773.9893307238362" accel="2.1" decel="2.8988669421357782" emergencyDecel="5.307155706463561" minGap="8.822537776388915" vClass="passenger" emissionClass="HBEFA4/PC_petrol_Euro-4" color="#FFFF00" guiShape="passenger/sedan"/>
    <vType id="vtype-vehicle252" length="5.494919887444181" mass="2185.802528268283" accel="2.1" decel="2.9088809781087703" emergencyDecel="5.499220837689139" minGap="10.048377523530124" vClass="passenger" emissionClass="HBEFA4/PC_diesel_Euro-4_(DPF)" color="#8A2BE2" guiShape="passenger/hatchback"/>
    <vType id="vtype-vehicle86" length="5.195302855218259" mass="1524.4082331153365" accel="4.4945622831325736" decel="4.762228102729444" emergencyDecel="4.75388672848602" minGap="6.725004883552846" vClass="passenger" emissionClass="HBEFA4/PC_diesel_Euro-2" color="#00BFFF" guiShape="passenger/sedan"/>
    <vType id="vtype-vehicle287" length="6.220119441844997" mass="2960.7419485945056" accel="3.2167108516234784" decel="3.321252325605385" emergencyDecel="6.097567835838462" minGap="6.364134241261748" vClass="delivery" emissionClass="HBEFA4/LCV_diesel_N1-II_Euro-5" color="#DC143C" guiShape="delivery"/>
    <vType id="vtype-vehicle108" length="6.5902455318190665" mass="1581.9473781260526" accel="2.1" decel="3.1559006708897024" emergencyDecel="5.5167082842852215" minGap="9.259256802303431" vClass="passenger" emissionClass="HBEFA4/PC_diesel_Euro-5" color="#00BFFF" guiShape="passenger/sedan"/>
    <vType id="vtype-vehicle253" length="2.970963219244811" mass="2502.6108922929498" accel="4.038070618123433" decel="2.571351822833425" emergencyDecel="5.931232974883967" minGap="6.961278668805518" vClass="passenger" emissionClass="HBEFA4/PC_diesel_Euro-5" color="#8A2BE2" guiShape="passenger/hatchback"/>
    <vType id="vtype-vehicle145" length="4.181038567139669" mass="1400.4009756859068" accel="2.1" decel="3.697316370038144" emergencyDecel="5.83223926181014" minGap="7.663454687689775" vClass="passenger" emissionClass="HBEFA4/PC_diesel_Euro-3" color="#00BFFF" guiShape="passenger/sedan"/>
    <vType id="vtype-vehicle302" length="5.445724917198711" mass="2881.1102921359666" accel="4.78659080310259" decel="3.159444768257639" emergencyDecel="6.486859766251362" minGap="10.497201528989663" vClass="delivery" emissionClass="HBEFA4/LCV_diesel_N1-II_Euro-2" color="#DC143C" guiShape="delivery"/>
    <vType id="vtype-vehicle187" length="5.979251355414558" mass="1915.6012443036402" accel="3.832312187212004" decel="2.8425266633254744" emergencyDecel="5.998977359856587" minGap="8.789619178254215" vClass="passenger" emissionClass="HBEFA4/PC_diesel_Euro-6ab" color="#00BFFF" guiShape="passenger/sedan"/>
    <vType id="vtype-vehicle291" length="5.204151245639255" mass="3327.6407520108282" accel="2.1" decel="4.146309652629742" emergencyDecel="6.570582658643751" minGap="7.144654030391687" vClass="delivery" emissionClass="HBEFA4/LCV_diesel_N1-II_Euro-3" color="#DC143C" guiShape="delivery"/>
    <vType id="vtype-vehicle233" length="6.946605897141688" mass="1881.4287762199515" accel="2.1" decel="3.06273237935611" emergencyDecel="6.135545823510075" minGap="8.201770450559657" vClass="passenger" emissionClass="HBEFA4/PC_diesel_Euro-5" color="#8A2BE2" guiShape="passenger/hatchback"/>
    <vType id="vtype-vehicle321" length="7.909622156514606" mass="7223.257485630468" accel="5.104894873349008" decel="3.079044876317623" emergencyDecel="4.74680648476235" minGap="6.80145153249663" vClass="delivery" emissionClass="HBEFA4/RT_le7.5t_Euro-III" color="#FFFFFF" guiShape="delivery"/>
    <vType id="vtype-vehicle29" length="5.625906716367817" mass="1366.7672097179138" accel="3.29787617182803" decel="1.9995674830168835" emergencyDecel="5.398143454931667" minGap="7.302067701094459" vClass="passenger" emissionClass="HBEFA4/PC_petrol_Euro-6ab" color="#FFFF00" guiShape="passenger/sedan"/>
    <vType id="vtype-vehicle225" length="5.015106546177443" mass="1797.601688881199" accel="2.1" decel="2.8186524245428997" emergencyDecel="7.030492432826057" minGap="6.555798403340904" vClass="passenger" emissionClass="HBEFA4/PC_diesel_Euro-4_(DPF)" color="#8A2BE2" guiShape="passenger/hatchback"/>
    <vType id="vtype-vehicle241" length="2.9594577188730646" mass="1875.4311984026222" accel="2.6039935161492456" decel="3.4392038510605323" emergencyDecel="8.424493158813036" minGap="8.728024960814203" vClass="passenger" emissionClass="HBEFA4/PC_diesel_Euro-6ab" color="#8A2BE2" guiShape="passenger/hatchback"/>
    <vType id="vtype-vehicle209" length="4.703707096032971" mass="1893.4830138439531" accel="2.5176895713467786" decel="3.316122365074242" emergencyDecel="5.8799407740940195" minGap="7.808683325957384" vClass="passenger" emissionClass="HBEFA4/PC_diesel_Euro-6ab" color="#8A2BE2" guiShape="passenger/hatchback"/>
    <vType id="vtype-vehicle125" length="7.28807998919513" mass="1564.6735405032734" accel="2.1" decel="2.2584373611556403" emergencyDecel="4.960196468253033" minGap="5.772665726350299" vClass="passenger" emissionClass="HBEFA4/PC_diesel_Euro-5" color="#00BFFF" guiShape="passenger/sedan"/>
    <vType id="vtype-vehicle293" length="5.793943800319886" mass="3262.979287664682" accel="3.506121530145114" decel="1.2308828321273084" emergencyDecel="6.528983848528898" minGap="6.843608144168869" vClass="delivery" emissionClass="HBEFA4/LCV_diesel_N1-II_convlt_1986" color="#DC143C" guiShape="delivery"/>
    <vType id="vtype-vehicle290" length="4.150287406537031" mass="3253.5114032327137" accel="2.1" decel="2.4527453948806626" emergencyDecel="7.643530181253127" minGap="7.686683565435807" vClass="delivery" emissionClass="HBEFA4/LCV_diesel_N1-II_convlt_1986" color="#DC143C" guiShape="delivery"/>
    <vType id="vtype-vehicle173" length="4.0423147341741625" mass="1395.8278630481846" accel="2.1" decel="3.2223088640131277" emergencyDecel="6.8803776538591075" minGap="13.142777724532" vClass="passenger" emissionClass="HBEFA4/PC_diesel_Euro-2" color="#00BFFF" guiShape="passenger/sedan"/>
    <vType id="vtype-vehicle203" length="6.010558489387636" mass="2147.4382535873137" accel="2.1" decel="3.6461706909449103" emergencyDecel="6.862405499391844" minGap="7.483323466540703" vClass="passenger" emissionClass="HBEFA4/PC_diesel_Euro-6ab" color="#8A2BE2" guiShape="passenger/hatchback"/>
    <vType id="vtype-vehicle121" length="4.478166681585709" mass="1521.3083019550425" accel="2.1" decel="4.474773615735453" emergencyDecel="4.531813332271617" minGap="5.435111857283526" vClass="passenger" emissionClass="HBEFA4/PC_diesel_Euro-5" color="#00BFFF" guiShape="passenger/sedan"/>
    <vType id="vtype-vehicle243" length="4.888408242207257" mass="1974.7896393306896" accel="2.803416222704274" decel="2.5856205872090037" emergencyDecel="6.522640334228928" minGap="4.902801823176428" vClass="passenger" emissionClass="HBEFA4/PC_diesel_Euro-4_(DPF)" color="#8A2BE2" guiShape="passenger/hatchback"/>
    <vType id="vtype-vehicle109" length="6.343881345198607" mass="1502.6053629857672" accel="4.183338887175779" decel="3.9409290701538655" emergencyDecel="5.249237803921097" minGap="1.331643308208653" vClass="passenger" emissionClass="HBEFA4/PC_diesel_Euro-6ab" color="#00BFFF" guiShape="passenger/sedan"/>
    <vType id="vtype-vehicle320" length="8.088003601744923" mass="8023.513039777806" accel="2.1" decel="4.451685988909159" emergencyDecel="6.058530448270884" minGap="5.544937298045381" vClass="delivery" emissionClass="HBEFA4/RT_gt7_5-12t_Euro-I" color="#FFFFFF" guiShape="delivery"/>