<?xml version="1.0" encoding="UTF-8"?>

<!-- generated on 2024-05-30 10:32:50 by Eclipse SUMO netedit Version 1.20.0
<configuration xmlns:xsi="http://www.w3.org/2001/XMLSchema-instance" xsi:noNamespaceSchemaLocation="http://sumo.dlr.de/xsd/neteditConfiguration.xsd">

    <input>
        <sumo-net-file value="C:\Users\Utente\OneDrive\Università\Tirocinio\Progetti SUMO\Simulazioni ed esperimenti SUMO\sumo_xml_files\manhattan8x8_75pc\manhattan8x8_75pc.net.xml"/>
    </input>

    <output>
        <output-file value="C:\Users\Utente\OneDrive\Università\Tirocinio\Progetti SUMO\Simulazioni ed esperimenti SUMO\sumo_xml_files\manhattan8x8_75pc\manhattan8x8_75pc.net.xml"/>
    </output>

    <processing>
        <geometry.min-radius.fix.railways value="false"/>
        <geometry.max-grade.fix value="false"/>
        <offset.disable-normalization value="true"/>
        <lefthand value="0"/>
    </processing>

    <junctions>
        <no-turnarounds value="true"/>
        <junctions.corner-detail value="5"/>
        <junctions.limit-turn-speed value="5.50"/>
        <rectangular-lane-cut value="0"/>
    </junctions>

    <pedestrian>
        <walkingareas value="0"/>
    </pedestrian>

</configuration>
-->

<net version="1.20" junctionCornerDetail="5" limitTurnSpeed="5.50" xmlns:xsi="http://www.w3.org/2001/XMLSchema-instance" xsi:noNamespaceSchemaLocation="http://sumo.dlr.de/xsd/net_file.xsd">

    <location netOffset="0.00,0.00" convBoundary="0.00,0.00,1120.00,1120.00" origBoundary="0.00,0.00,1120.00,1120.00" projParameter="!"/>

    <edge id=":A0_0" function="internal">
        <lane id=":A0_0_0" index="0" speed="8.96" length="18.06" shape="-4.80,6.40 -4.10,1.50 -2.00,-2.00 1.50,-4.10 6.40,-4.80"/>
        <lane id=":A0_0_1" index="1" speed="7.66" length="12.90" shape="-1.60,6.40 -1.10,2.90 0.40,0.40 2.90,-1.10 6.40,-1.60"/>
    </edge>
    <edge id=":A0_2" function="internal">
        <lane id=":A0_2_0" index="0" speed="3.90" length="2.58" shape="6.40,4.80 5.70,4.90 5.20,5.20 4.90,5.70 4.80,6.40"/>
        <lane id=":A0_2_1" index="1" speed="6.08" length="7.74" shape="6.40,1.60 4.30,1.90 2.80,2.80 1.90,4.30 1.60,6.40"/>
    </edge>
    <edge id=":A1_0" function="internal">
        <lane id=":A1_0_0" index="0" speed="13.89" length="20.80" shape="-4.80,170.40 -4.80,149.60"/>
        <lane id=":A1_0_1" index="1" speed="13.89" length="20.80" shape="-1.60,170.40 -1.60,149.60"/>
    </edge>
    <edge id=":A1_2" function="internal">
        <lane id=":A1_2_0" index="0" speed="9.26" length="5.01" shape="-1.60,170.40 -0.89,165.44"/>
    </edge>
    <edge id=":A1_9" function="internal">
        <lane id=":A1_9_0" index="0" speed="9.26" length="14.34" shape="-0.89,165.44 -0.85,165.15 1.40,161.40 5.15,159.15 10.40,158.40"/>
    </edge>
    <edge id=":A1_3" function="internal">
        <lane id=":A1_3_0" index="0" speed="6.51" length="9.03" shape="10.40,164.80 7.95,165.15 6.20,166.20 5.15,167.95 4.80,170.40"/>
        <lane id=":A1_3_1" index="1" speed="8.00" length="14.19" shape="10.40,161.60 6.55,162.15 3.80,163.80 2.15,166.55 1.60,170.40"/>
    </edge>
    <edge id=":A1_5" function="internal">
        <lane id=":A1_5_0" index="0" speed="9.26" length="19.35" shape="10.40,161.60 5.15,160.85 1.40,158.60 -0.85,154.85 -1.60,149.60"/>
    </edge>
    <edge id=":A1_6" function="internal">
        <lane id=":A1_6_0" index="0" speed="6.51" length="9.03" shape="4.80,149.60 5.15,152.05 6.20,153.80 7.95,154.85 10.40,155.20"/>
    </edge>
    <edge id=":A1_7" function="internal">
        <lane id=":A1_7_0" index="0" speed="13.89" length="20.80" shape="4.80,149.60 4.80,170.40"/>
        <lane id=":A1_7_1" index="1" speed="13.89" length="20.80" shape="1.60,149.60 1.60,170.40"/>
    </edge>
    <edge id=":A2_0" function="internal">
        <lane id=":A2_0_0" index="0" speed="13.89" length="20.80" shape="-4.80,330.40 -4.80,309.60"/>
        <lane id=":A2_0_1" index="1" speed="13.89" length="20.80" shape="-1.60,330.40 -1.60,309.60"/>
    </edge>
    <edge id=":A2_2" function="internal">
        <lane id=":A2_2_0" index="0" speed="9.26" length="5.01" shape="-1.60,330.40 -0.89,325.44"/>
    </edge>
    <edge id=":A2_9" function="internal">
        <lane id=":A2_9_0" index="0" speed="9.26" length="14.34" shape="-0.89,325.44 -0.85,325.15 1.40,321.40 5.15,319.15 10.40,318.40"/>
    </edge>
    <edge id=":A2_3" function="internal">
        <lane id=":A2_3_0" index="0" speed="6.51" length="9.03" shape="10.40,324.80 7.95,325.15 6.20,326.20 5.15,327.95 4.80,330.40"/>
        <lane id=":A2_3_1" index="1" speed="8.00" length="14.19" shape="10.40,321.60 6.55,322.15 3.80,323.80 2.15,326.55 1.60,330.40"/>
    </edge>
    <edge id=":A2_5" function="internal">
        <lane id=":A2_5_0" index="0" speed="9.26" length="19.35" shape="10.40,321.60 5.15,320.85 1.40,318.60 -0.85,314.85 -1.60,309.60"/>
    </edge>
    <edge id=":A2_6" function="internal">
        <lane id=":A2_6_0" index="0" speed="6.51" length="9.03" shape="4.80,309.60 5.15,312.05 6.20,313.80 7.95,314.85 10.40,315.20"/>
    </edge>
    <edge id=":A2_7" function="internal">
        <lane id=":A2_7_0" index="0" speed="13.89" length="20.80" shape="4.80,309.60 4.80,330.40"/>
        <lane id=":A2_7_1" index="1" speed="13.89" length="20.80" shape="1.60,309.60 1.60,330.40"/>
    </edge>
    <edge id=":A3_0" function="internal">
        <lane id=":A3_0_0" index="0" speed="13.89" length="20.80" shape="-4.80,490.40 -4.80,469.60"/>
        <lane id=":A3_0_1" index="1" speed="13.89" length="20.80" shape="-1.60,490.40 -1.60,469.60"/>
    </edge>
    <edge id=":A3_2" function="internal">
        <lane id=":A3_2_0" index="0" speed="9.26" length="5.01" shape="-1.60,490.40 -0.89,485.44"/>
    </edge>
    <edge id=":A3_9" function="internal">
        <lane id=":A3_9_0" index="0" speed="9.26" length="14.34" shape="-0.89,485.44 -0.85,485.15 1.40,481.40 5.15,479.15 10.40,478.40"/>
    </edge>
    <edge id=":A3_3" function="internal">
        <lane id=":A3_3_0" index="0" speed="6.51" length="9.03" shape="10.40,484.80 7.95,485.15 6.20,486.20 5.15,487.95 4.80,490.40"/>
        <lane id=":A3_3_1" index="1" speed="8.00" length="14.19" shape="10.40,481.60 6.55,482.15 3.80,483.80 2.15,486.55 1.60,490.40"/>
    </edge>
    <edge id=":A3_5" function="internal">
        <lane id=":A3_5_0" index="0" speed="9.26" length="19.35" shape="10.40,481.60 5.15,480.85 1.40,478.60 -0.85,474.85 -1.60,469.60"/>
    </edge>
    <edge id=":A3_6" function="internal">
        <lane id=":A3_6_0" index="0" speed="6.51" length="9.03" shape="4.80,469.60 5.15,472.05 6.20,473.80 7.95,474.85 10.40,475.20"/>
    </edge>
    <edge id=":A3_7" function="internal">
        <lane id=":A3_7_0" index="0" speed="13.89" length="20.80" shape="4.80,469.60 4.80,490.40"/>
        <lane id=":A3_7_1" index="1" speed="13.89" length="20.80" shape="1.60,469.60 1.60,490.40"/>
    </edge>
    <edge id=":A4_0" function="internal">
        <lane id=":A4_0_0" index="0" speed="13.89" length="20.80" shape="-4.80,650.40 -4.80,629.60"/>
        <lane id=":A4_0_1" index="1" speed="13.89" length="20.80" shape="-1.60,650.40 -1.60,629.60"/>
    </edge>
    <edge id=":A4_2" function="internal">
        <lane id=":A4_2_0" index="0" speed="9.26" length="5.01" shape="-1.60,650.40 -0.89,645.44"/>
    </edge>
    <edge id=":A4_9" function="internal">
        <lane id=":A4_9_0" index="0" speed="9.26" length="14.34" shape="-0.89,645.44 -0.85,645.15 1.40,641.40 5.15,639.15 10.40,638.40"/>
    </edge>
    <edge id=":A4_3" function="internal">
        <lane id=":A4_3_0" index="0" speed="6.51" length="9.03" shape="10.40,644.80 7.95,645.15 6.20,646.20 5.15,647.95 4.80,650.40"/>
        <lane id=":A4_3_1" index="1" speed="8.00" length="14.19" shape="10.40,641.60 6.55,642.15 3.80,643.80 2.15,646.55 1.60,650.40"/>
    </edge>
    <edge id=":A4_5" function="internal">
        <lane id=":A4_5_0" index="0" speed="9.26" length="19.35" shape="10.40,641.60 5.15,640.85 1.40,638.60 -0.85,634.85 -1.60,629.60"/>
    </edge>
    <edge id=":A4_6" function="internal">
        <lane id=":A4_6_0" index="0" speed="6.51" length="9.03" shape="4.80,629.60 5.15,632.05 6.20,633.80 7.95,634.85 10.40,635.20"/>
    </edge>
    <edge id=":A4_7" function="internal">
        <lane id=":A4_7_0" index="0" speed="13.89" length="20.80" shape="4.80,629.60 4.80,650.40"/>
        <lane id=":A4_7_1" index="1" speed="13.89" length="20.80" shape="1.60,629.60 1.60,650.40"/>
    </edge>
    <edge id=":A5_0" function="internal">
        <lane id=":A5_0_0" index="0" speed="13.89" length="20.80" shape="-4.80,810.40 -4.80,789.60"/>
        <lane id=":A5_0_1" index="1" speed="13.89" length="20.80" shape="-1.60,810.40 -1.60,789.60"/>
    </edge>
    <edge id=":A5_2" function="internal">
        <lane id=":A5_2_0" index="0" speed="9.26" length="5.01" shape="-1.60,810.40 -0.89,805.44"/>
    </edge>
    <edge id=":A5_9" function="internal">
        <lane id=":A5_9_0" index="0" speed="9.26" length="14.34" shape="-0.89,805.44 -0.85,805.15 1.40,801.40 5.15,799.15 10.40,798.40"/>
    </edge>
    <edge id=":A5_3" function="internal">
        <lane id=":A5_3_0" index="0" speed="6.51" length="9.03" shape="10.40,804.80 7.95,805.15 6.20,806.20 5.15,807.95 4.80,810.40"/>
        <lane id=":A5_3_1" index="1" speed="8.00" length="14.19" shape="10.40,801.60 6.55,802.15 3.80,803.80 2.15,806.55 1.60,810.40"/>
    </edge>
    <edge id=":A5_5" function="internal">
        <lane id=":A5_5_0" index="0" speed="9.26" length="19.35" shape="10.40,801.60 5.15,800.85 1.40,798.60 -0.85,794.85 -1.60,789.60"/>
    </edge>
    <edge id=":A5_6" function="internal">
        <lane id=":A5_6_0" index="0" speed="6.51" length="9.03" shape="4.80,789.60 5.15,792.05 6.20,793.80 7.95,794.85 10.40,795.20"/>
    </edge>
    <edge id=":A5_7" function="internal">
        <lane id=":A5_7_0" index="0" speed="13.89" length="20.80" shape="4.80,789.60 4.80,810.40"/>
        <lane id=":A5_7_1" index="1" speed="13.89" length="20.80" shape="1.60,789.60 1.60,810.40"/>
    </edge>
    <edge id=":A6_0" function="internal">
        <lane id=":A6_0_0" index="0" speed="13.89" length="20.80" shape="-4.80,970.40 -4.80,949.60"/>
        <lane id=":A6_0_1" index="1" speed="13.89" length="20.80" shape="-1.60,970.40 -1.60,949.60"/>
    </edge>
    <edge id=":A6_2" function="internal">
        <lane id=":A6_2_0" index="0" speed="9.26" length="5.01" shape="-1.60,970.40 -0.89,965.44"/>
    </edge>
    <edge id=":A6_9" function="internal">
        <lane id=":A6_9_0" index="0" speed="9.26" length="14.34" shape="-0.89,965.44 -0.85,965.15 1.40,961.40 5.15,959.15 10.40,958.40"/>
    </edge>
    <edge id=":A6_3" function="internal">
        <lane id=":A6_3_0" index="0" speed="6.51" length="9.03" shape="10.40,964.80 7.95,965.15 6.20,966.20 5.15,967.95 4.80,970.40"/>
        <lane id=":A6_3_1" index="1" speed="8.00" length="14.19" shape="10.40,961.60 6.55,962.15 3.80,963.80 2.15,966.55 1.60,970.40"/>
    </edge>
    <edge id=":A6_5" function="internal">
        <lane id=":A6_5_0" index="0" speed="9.26" length="19.35" shape="10.40,961.60 5.15,960.85 1.40,958.60 -0.85,954.85 -1.60,949.60"/>
    </edge>
    <edge id=":A6_6" function="internal">
        <lane id=":A6_6_0" index="0" speed="6.51" length="9.03" shape="4.80,949.60 5.15,952.05 6.20,953.80 7.95,954.85 10.40,955.20"/>
    </edge>
    <edge id=":A6_7" function="internal">
        <lane id=":A6_7_0" index="0" speed="13.89" length="20.80" shape="4.80,949.60 4.80,970.40"/>
        <lane id=":A6_7_1" index="1" speed="13.89" length="20.80" shape="1.60,949.60 1.60,970.40"/>
    </edge>
    <edge id=":A7_0" function="internal">
        <lane id=":A7_0_0" index="0" speed="8.96" length="18.06" shape="6.40,1124.80 1.50,1124.10 -2.00,1122.00 -4.10,1118.50 -4.80,1113.60"/>
        <lane id=":A7_0_1" index="1" speed="7.66" length="12.90" shape="6.40,1121.60 2.90,1121.10 0.40,1119.60 -1.10,1117.10 -1.60,1113.60"/>
    </edge>
    <edge id=":A7_2" function="internal">
        <lane id=":A7_2_0" index="0" speed="3.90" length="2.58" shape="4.80,1113.60 4.90,1114.30 5.20,1114.80 5.70,1115.10 6.40,1115.20"/>
        <lane id=":A7_2_1" index="1" speed="6.08" length="7.74" shape="1.60,1113.60 1.90,1115.70 2.80,1117.20 4.30,1118.10 6.40,1118.40"/>
    </edge>
    <edge id=":B0_0" function="internal">
        <lane id=":B0_0_0" index="0" speed="6.51" length="9.03" shape="155.20,10.40 154.85,7.95 153.80,6.20 152.05,5.15 149.60,4.80"/>
        <lane id=":B0_0_1" index="1" speed="8.00" length="14.19" shape="158.40,10.40 157.85,6.55 156.20,3.80 153.45,2.15 149.60,1.60"/>
    </edge>
    <edge id=":B0_2" function="internal">
        <lane id=":B0_2_0" index="0" speed="9.26" length="19.35" shape="158.40,10.40 159.15,5.15 161.40,1.40 165.15,-0.85 170.40,-1.60"/>
    </edge>
    <edge id=":B0_3" function="internal">
        <lane id=":B0_3_0" index="0" speed="6.51" length="9.03" shape="170.40,4.80 167.95,5.15 166.20,6.20 165.15,7.95 164.80,10.40"/>
    </edge>
    <edge id=":B0_4" function="internal">
        <lane id=":B0_4_0" index="0" speed="13.89" length="20.80" shape="170.40,4.80 149.60,4.80"/>
        <lane id=":B0_4_1" index="1" speed="13.89" length="20.80" shape="170.40,1.60 149.60,1.60"/>
    </edge>
    <edge id=":B0_6" function="internal">
        <lane id=":B0_6_0" index="0" speed="13.89" length="20.80" shape="149.60,-4.80 170.40,-4.80"/>
        <lane id=":B0_6_1" index="1" speed="13.89" length="20.80" shape="149.60,-1.60 170.40,-1.60"/>
    </edge>
    <edge id=":B0_8" function="internal">
        <lane id=":B0_8_0" index="0" speed="9.26" length="5.01" shape="149.60,-1.60 154.56,-0.89"/>
    </edge>
    <edge id=":B0_9" function="internal">
        <lane id=":B0_9_0" index="0" speed="9.26" length="14.34" shape="154.56,-0.89 154.85,-0.85 158.60,1.40 160.85,5.15 161.60,10.40"/>
    </edge>
    <edge id=":B1_0" function="internal">
        <lane id=":B1_0_0" index="0" speed="6.51" length="9.03" shape="155.20,170.40 154.85,167.95 153.80,166.20 152.05,165.15 149.60,164.80"/>
    </edge>
    <edge id=":B1_1" function="internal">
        <lane id=":B1_1_0" index="0" speed="13.89" length="20.80" shape="155.20,170.40 155.20,149.60"/>
        <lane id=":B1_1_1" index="1" speed="13.89" length="20.80" shape="158.40,170.40 158.40,149.60"/>
    </edge>
    <edge id=":B1_3" function="internal">
        <lane id=":B1_3_0" index="0" speed="9.26" length="5.01" shape="158.40,170.40 159.11,165.44"/>
    </edge>
    <edge id=":B1_16" function="internal">
        <lane id=":B1_16_0" index="0" speed="9.26" length="14.34" shape="159.11,165.44 159.15,165.15 161.40,161.40 165.15,159.15 170.40,158.40"/>
    </edge>
    <edge id=":B1_4" function="internal">
        <lane id=":B1_4_0" index="0" speed="6.51" length="9.03" shape="170.40,164.80 167.95,165.15 166.20,166.20 165.15,167.95 164.80,170.40"/>
    </edge>
    <edge id=":B1_5" function="internal">
        <lane id=":B1_5_0" index="0" speed="13.89" length="20.80" shape="170.40,164.80 149.60,164.80"/>
        <lane id=":B1_5_1" index="1" speed="13.89" length="20.80" shape="170.40,161.60 149.60,161.60"/>
    </edge>
    <edge id=":B1_7" function="internal">
        <lane id=":B1_7_0" index="0" speed="9.26" length="5.01" shape="170.40,161.60 165.44,160.89"/>
    </edge>
    <edge id=":B1_17" function="internal">
        <lane id=":B1_17_0" index="0" speed="9.26" length="14.34" shape="165.44,160.89 165.15,160.85 161.40,158.60 159.15,154.85 158.40,149.60"/>
    </edge>
    <edge id=":B1_8" function="internal">
        <lane id=":B1_8_0" index="0" speed="6.51" length="9.03" shape="164.80,149.60 165.15,152.05 166.20,153.80 167.95,154.85 170.40,155.20"/>
    </edge>
    <edge id=":B1_9" function="internal">
        <lane id=":B1_9_0" index="0" speed="13.89" length="20.80" shape="164.80,149.60 164.80,170.40"/>
        <lane id=":B1_9_1" index="1" speed="13.89" length="20.80" shape="161.60,149.60 161.60,170.40"/>
    </edge>
    <edge id=":B1_11" function="internal">
        <lane id=":B1_11_0" index="0" speed="9.26" length="5.01" shape="161.60,149.60 160.89,154.56"/>
    </edge>
    <edge id=":B1_18" function="internal">
        <lane id=":B1_18_0" index="0" speed="9.26" length="14.34" shape="160.89,154.56 160.85,154.85 158.60,158.60 154.85,160.85 149.60,161.60"/>
    </edge>
    <edge id=":B1_12" function="internal">
        <lane id=":B1_12_0" index="0" speed="6.51" length="9.03" shape="149.60,155.20 152.05,154.85 153.80,153.80 154.85,152.05 155.20,149.60"/>
    </edge>
    <edge id=":B1_13" function="internal">
        <lane id=":B1_13_0" index="0" speed="13.89" length="20.80" shape="149.60,155.20 170.40,155.20"/>
        <lane id=":B1_13_1" index="1" speed="13.89" length="20.80" shape="149.60,158.40 170.40,158.40"/>
    </edge>
    <edge id=":B1_15" function="internal">
        <lane id=":B1_15_0" index="0" speed="9.26" length="5.01" shape="149.60,158.40 154.56,159.11"/>
    </edge>
    <edge id=":B1_19" function="internal">
        <lane id=":B1_19_0" index="0" speed="9.26" length="14.34" shape="154.56,159.11 154.85,159.15 158.60,161.40 160.85,165.15 161.60,170.40"/>
    </edge>
    <edge id=":B2_0" function="internal">
        <lane id=":B2_0_0" index="0" speed="6.51" length="9.03" shape="155.20,330.40 154.85,327.95 153.80,326.20 152.05,325.15 149.60,324.80"/>
    </edge>
    <edge id=":B2_1" function="internal">
        <lane id=":B2_1_0" index="0" speed="13.89" length="20.80" shape="155.20,330.40 155.20,309.60"/>
        <lane id=":B2_1_1" index="1" speed="13.89" length="20.80" shape="158.40,330.40 158.40,309.60"/>
    </edge>
    <edge id=":B2_3" function="internal">
        <lane id=":B2_3_0" index="0" speed="9.26" length="5.01" shape="158.40,330.40 159.11,325.44"/>
    </edge>
    <edge id=":B2_16" function="internal">
        <lane id=":B2_16_0" index="0" speed="9.26" length="14.34" shape="159.11,325.44 159.15,325.15 161.40,321.40 165.15,319.15 170.40,318.40"/>
    </edge>
    <edge id=":B2_4" function="internal">
        <lane id=":B2_4_0" index="0" speed="6.51" length="9.03" shape="170.40,324.80 167.95,325.15 166.20,326.20 165.15,327.95 164.80,330.40"/>
    </edge>
    <edge id=":B2_5" function="internal">
        <lane id=":B2_5_0" index="0" speed="13.89" length="20.80" shape="170.40,324.80 149.60,324.80"/>
        <lane id=":B2_5_1" index="1" speed="13.89" length="20.80" shape="170.40,321.60 149.60,321.60"/>
    </edge>
    <edge id=":B2_7" function="internal">
        <lane id=":B2_7_0" index="0" speed="9.26" length="5.01" shape="170.40,321.60 165.44,320.89"/>
    </edge>
    <edge id=":B2_17" function="internal">
        <lane id=":B2_17_0" index="0" speed="9.26" length="14.34" shape="165.44,320.89 165.15,320.85 161.40,318.60 159.15,314.85 158.40,309.60"/>
    </edge>
    <edge id=":B2_8" function="internal">
        <lane id=":B2_8_0" index="0" speed="6.51" length="9.03" shape="164.80,309.60 165.15,312.05 166.20,313.80 167.95,314.85 170.40,315.20"/>
    </edge>
    <edge id=":B2_9" function="internal">
        <lane id=":B2_9_0" index="0" speed="13.89" length="20.80" shape="164.80,309.60 164.80,330.40"/>
        <lane id=":B2_9_1" index="1" speed="13.89" length="20.80" shape="161.60,309.60 161.60,330.40"/>
    </edge>
    <edge id=":B2_11" function="internal">
        <lane id=":B2_11_0" index="0" speed="9.26" length="5.01" shape="161.60,309.60 160.89,314.56"/>
    </edge>
    <edge id=":B2_18" function="internal">
        <lane id=":B2_18_0" index="0" speed="9.26" length="14.34" shape="160.89,314.56 160.85,314.85 158.60,318.60 154.85,320.85 149.60,321.60"/>
    </edge>
    <edge id=":B2_12" function="internal">
        <lane id=":B2_12_0" index="0" speed="6.51" length="9.03" shape="149.60,315.20 152.05,314.85 153.80,313.80 154.85,312.05 155.20,309.60"/>
    </edge>
    <edge id=":B2_13" function="internal">
        <lane id=":B2_13_0" index="0" speed="13.89" length="20.80" shape="149.60,315.20 170.40,315.20"/>
        <lane id=":B2_13_1" index="1" speed="13.89" length="20.80" shape="149.60,318.40 170.40,318.40"/>
    </edge>
    <edge id=":B2_15" function="internal">
        <lane id=":B2_15_0" index="0" speed="9.26" length="5.01" shape="149.60,318.40 154.56,319.11"/>
    </edge>
    <edge id=":B2_19" function="internal">
        <lane id=":B2_19_0" index="0" speed="9.26" length="14.34" shape="154.56,319.11 154.85,319.15 158.60,321.40 160.85,325.15 161.60,330.40"/>
    </edge>
    <edge id=":B3_0" function="internal">
        <lane id=":B3_0_0" index="0" speed="6.51" length="9.03" shape="155.20,490.40 154.85,487.95 153.80,486.20 152.05,485.15 149.60,484.80"/>
    </edge>
    <edge id=":B3_1" function="internal">
        <lane id=":B3_1_0" index="0" speed="13.89" length="20.80" shape="155.20,490.40 155.20,469.60"/>
        <lane id=":B3_1_1" index="1" speed="13.89" length="20.80" shape="158.40,490.40 158.40,469.60"/>
    </edge>
    <edge id=":B3_3" function="internal">
        <lane id=":B3_3_0" index="0" speed="9.26" length="5.01" shape="158.40,490.40 159.11,485.44"/>
    </edge>
    <edge id=":B3_16" function="internal">
        <lane id=":B3_16_0" index="0" speed="9.26" length="14.34" shape="159.11,485.44 159.15,485.15 161.40,481.40 165.15,479.15 170.40,478.40"/>
    </edge>
    <edge id=":B3_4" function="internal">
        <lane id=":B3_4_0" index="0" speed="6.51" length="9.03" shape="170.40,484.80 167.95,485.15 166.20,486.20 165.15,487.95 164.80,490.40"/>
    </edge>
    <edge id=":B3_5" function="internal">
        <lane id=":B3_5_0" index="0" speed="13.89" length="20.80" shape="170.40,484.80 149.60,484.80"/>
        <lane id=":B3_5_1" index="1" speed="13.89" length="20.80" shape="170.40,481.60 149.60,481.60"/>
    </edge>
    <edge id=":B3_7" function="internal">
        <lane id=":B3_7_0" index="0" speed="9.26" length="5.01" shape="170.40,481.60 165.44,480.89"/>
    </edge>
    <edge id=":B3_17" function="internal">
        <lane id=":B3_17_0" index="0" speed="9.26" length="14.34" shape="165.44,480.89 165.15,480.85 161.40,478.60 159.15,474.85 158.40,469.60"/>
    </edge>
    <edge id=":B3_8" function="internal">
        <lane id=":B3_8_0" index="0" speed="6.51" length="9.03" shape="164.80,469.60 165.15,472.05 166.20,473.80 167.95,474.85 170.40,475.20"/>
    </edge>
    <edge id=":B3_9" function="internal">
        <lane id=":B3_9_0" index="0" speed="13.89" length="20.80" shape="164.80,469.60 164.80,490.40"/>
        <lane id=":B3_9_1" index="1" speed="13.89" length="20.80" shape="161.60,469.60 161.60,490.40"/>
    </edge>
    <edge id=":B3_11" function="internal">
        <lane id=":B3_11_0" index="0" speed="9.26" length="5.01" shape="161.60,469.60 160.89,474.56"/>
    </edge>
    <edge id=":B3_18" function="internal">
        <lane id=":B3_18_0" index="0" speed="9.26" length="14.34" shape="160.89,474.56 160.85,474.85 158.60,478.60 154.85,480.85 149.60,481.60"/>
    </edge>
    <edge id=":B3_12" function="internal">
        <lane id=":B3_12_0" index="0" speed="6.51" length="9.03" shape="149.60,475.20 152.05,474.85 153.80,473.80 154.85,472.05 155.20,469.60"/>
    </edge>
    <edge id=":B3_13" function="internal">
        <lane id=":B3_13_0" index="0" speed="13.89" length="20.80" shape="149.60,475.20 170.40,475.20"/>
        <lane id=":B3_13_1" index="1" speed="13.89" length="20.80" shape="149.60,478.40 170.40,478.40"/>
    </edge>
    <edge id=":B3_15" function="internal">
        <lane id=":B3_15_0" index="0" speed="9.26" length="5.01" shape="149.60,478.40 154.56,479.11"/>
    </edge>
    <edge id=":B3_19" function="internal">
        <lane id=":B3_19_0" index="0" speed="9.26" length="14.34" shape="154.56,479.11 154.85,479.15 158.60,481.40 160.85,485.15 161.60,490.40"/>
    </edge>
    <edge id=":B4_0" function="internal">
        <lane id=":B4_0_0" index="0" speed="6.51" length="9.03" shape="155.20,650.40 154.85,647.95 153.80,646.20 152.05,645.15 149.60,644.80"/>
    </edge>
    <edge id=":B4_1" function="internal">
        <lane id=":B4_1_0" index="0" speed="13.89" length="20.80" shape="155.20,650.40 155.20,629.60"/>
        <lane id=":B4_1_1" index="1" speed="13.89" length="20.80" shape="158.40,650.40 158.40,629.60"/>
    </edge>
    <edge id=":B4_3" function="internal">
        <lane id=":B4_3_0" index="0" speed="9.26" length="5.01" shape="158.40,650.40 159.11,645.44"/>
    </edge>
    <edge id=":B4_16" function="internal">
        <lane id=":B4_16_0" index="0" speed="9.26" length="14.34" shape="159.11,645.44 159.15,645.15 161.40,641.40 165.15,639.15 170.40,638.40"/>
    </edge>
    <edge id=":B4_4" function="internal">
        <lane id=":B4_4_0" index="0" speed="6.51" length="9.03" shape="170.40,644.80 167.95,645.15 166.20,646.20 165.15,647.95 164.80,650.40"/>
    </edge>
    <edge id=":B4_5" function="internal">
        <lane id=":B4_5_0" index="0" speed="13.89" length="20.80" shape="170.40,644.80 149.60,644.80"/>
        <lane id=":B4_5_1" index="1" speed="13.89" length="20.80" shape="170.40,641.60 149.60,641.60"/>
    </edge>
    <edge id=":B4_7" function="internal">
        <lane id=":B4_7_0" index="0" speed="9.26" length="5.01" shape="170.40,641.60 165.44,640.89"/>
    </edge>
    <edge id=":B4_17" function="internal">
        <lane id=":B4_17_0" index="0" speed="9.26" length="14.34" shape="165.44,640.89 165.15,640.85 161.40,638.60 159.15,634.85 158.40,629.60"/>
    </edge>
    <edge id=":B4_8" function="internal">
        <lane id=":B4_8_0" index="0" speed="6.51" length="9.03" shape="164.80,629.60 165.15,632.05 166.20,633.80 167.95,634.85 170.40,635.20"/>
    </edge>
    <edge id=":B4_9" function="internal">
        <lane id=":B4_9_0" index="0" speed="13.89" length="20.80" shape="164.80,629.60 164.80,650.40"/>
        <lane id=":B4_9_1" index="1" speed="13.89" length="20.80" shape="161.60,629.60 161.60,650.40"/>
    </edge>
    <edge id=":B4_11" function="internal">
        <lane id=":B4_11_0" index="0" speed="9.26" length="5.01" shape="161.60,629.60 160.89,634.56"/>
    </edge>
    <edge id=":B4_18" function="internal">
        <lane id=":B4_18_0" index="0" speed="9.26" length="14.34" shape="160.89,634.56 160.85,634.85 158.60,638.60 154.85,640.85 149.60,641.60"/>
    </edge>
    <edge id=":B4_12" function="internal">
        <lane id=":B4_12_0" index="0" speed="6.51" length="9.03" shape="149.60,635.20 152.05,634.85 153.80,633.80 154.85,632.05 155.20,629.60"/>
    </edge>
    <edge id=":B4_13" function="internal">
        <lane id=":B4_13_0" index="0" speed="13.89" length="20.80" shape="149.60,635.20 170.40,635.20"/>
        <lane id=":B4_13_1" index="1" speed="13.89" length="20.80" shape="149.60,638.40 170.40,638.40"/>
    </edge>
    <edge id=":B4_15" function="internal">
        <lane id=":B4_15_0" index="0" speed="9.26" length="5.01" shape="149.60,638.40 154.56,639.11"/>
    </edge>
    <edge id=":B4_19" function="internal">
        <lane id=":B4_19_0" index="0" speed="9.26" length="14.34" shape="154.56,639.11 154.85,639.15 158.60,641.40 160.85,645.15 161.60,650.40"/>
    </edge>
    <edge id=":B5_0" function="internal">
        <lane id=":B5_0_0" index="0" speed="6.51" length="9.03" shape="155.20,810.40 154.85,807.95 153.80,806.20 152.05,805.15 149.60,804.80"/>
    </edge>
    <edge id=":B5_1" function="internal">
        <lane id=":B5_1_0" index="0" speed="13.89" length="20.80" shape="155.20,810.40 155.20,789.60"/>
        <lane id=":B5_1_1" index="1" speed="13.89" length="20.80" shape="158.40,810.40 158.40,789.60"/>
    </edge>
    <edge id=":B5_3" function="internal">
        <lane id=":B5_3_0" index="0" speed="9.26" length="5.01" shape="158.40,810.40 159.11,805.44"/>
    </edge>
    <edge id=":B5_16" function="internal">
        <lane id=":B5_16_0" index="0" speed="9.26" length="14.34" shape="159.11,805.44 159.15,805.15 161.40,801.40 165.15,799.15 170.40,798.40"/>
    </edge>
    <edge id=":B5_4" function="internal">
        <lane id=":B5_4_0" index="0" speed="6.51" length="9.03" shape="170.40,804.80 167.95,805.15 166.20,806.20 165.15,807.95 164.80,810.40"/>
    </edge>
    <edge id=":B5_5" function="internal">
        <lane id=":B5_5_0" index="0" speed="13.89" length="20.80" shape="170.40,804.80 149.60,804.80"/>
        <lane id=":B5_5_1" index="1" speed="13.89" length="20.80" shape="170.40,801.60 149.60,801.60"/>
    </edge>
    <edge id=":B5_7" function="internal">
        <lane id=":B5_7_0" index="0" speed="9.26" length="5.01" shape="170.40,801.60 165.44,800.89"/>
    </edge>
    <edge id=":B5_17" function="internal">
        <lane id=":B5_17_0" index="0" speed="9.26" length="14.34" shape="165.44,800.89 165.15,800.85 161.40,798.60 159.15,794.85 158.40,789.60"/>
    </edge>
    <edge id=":B5_8" function="internal">
        <lane id=":B5_8_0" index="0" speed="6.51" length="9.03" shape="164.80,789.60 165.15,792.05 166.20,793.80 167.95,794.85 170.40,795.20"/>
    </edge>
    <edge id=":B5_9" function="internal">
        <lane id=":B5_9_0" index="0" speed="13.89" length="20.80" shape="164.80,789.60 164.80,810.40"/>
        <lane id=":B5_9_1" index="1" speed="13.89" length="20.80" shape="161.60,789.60 161.60,810.40"/>
    </edge>
    <edge id=":B5_11" function="internal">
        <lane id=":B5_11_0" index="0" speed="9.26" length="5.01" shape="161.60,789.60 160.89,794.56"/>
    </edge>
    <edge id=":B5_18" function="internal">
        <lane id=":B5_18_0" index="0" speed="9.26" length="14.34" shape="160.89,794.56 160.85,794.85 158.60,798.60 154.85,800.85 149.60,801.60"/>
    </edge>
    <edge id=":B5_12" function="internal">
        <lane id=":B5_12_0" index="0" speed="6.51" length="9.03" shape="149.60,795.20 152.05,794.85 153.80,793.80 154.85,792.05 155.20,789.60"/>
    </edge>
    <edge id=":B5_13" function="internal">
        <lane id=":B5_13_0" index="0" speed="13.89" length="20.80" shape="149.60,795.20 170.40,795.20"/>
        <lane id=":B5_13_1" index="1" speed="13.89" length="20.80" shape="149.60,798.40 170.40,798.40"/>
    </edge>
    <edge id=":B5_15" function="internal">
        <lane id=":B5_15_0" index="0" speed="9.26" length="5.01" shape="149.60,798.40 154.56,799.11"/>
    </edge>