<additional xmlns:xsi="http://www.w3.org/2001/XMLSchema-instance" xsi:noNamespaceSchemaLocation="http://sumo.dlr.de/xsd/additional_file.xsd">
    <!-- Traffic lights -->
    <tlLogic id="B1" type="static" programID="1" offset="0">
        <phase duration="1000000" state="rrrrGGGgrrrrGGGg" next="1"/>
        <phase duration="3"       state="rrrryyyyrrrryyyy" next="2"/>
        <phase duration="3"       state="rrrrrrrrrrrrrrrr" next="3"/>
        <phase duration="1000000" state="GGGgrrrrGGGgrrrr" next="4"/>
        <phase duration="3"       state="yyyyrrrryyyyrrrr" next="5"/>
        <phase duration="3"       state="rrrrrrrrrrrrrrrr" next="0"/>
    </tlLogic>

    <!-- Detectors -->
    <!-- codifica ID: IL-nodoinizio-nodofine-corsia, posizione: (lunghezza edge) - 15 -->
    <inductionLoop id="IL-A0-bottom0-0" lane="A0bottom0_0" pos="185.0" period="300.00" file="NUL"/>
    <inductionLoop id="IL-A0-bottom0-1" lane="A0bottom0_1" pos="185.0" period="300.00" file="NUL"/>
    <inductionLoop id="IL-bottom0-A0-0" lane="bottom0A0_0" pos="1.00" period="300.00" file="NUL"/>
    <inductionLoop id="IL-bottom0-A0-1" lane="bottom0A0_1" pos="1.00" period="300.00" file="NUL"/>
</additional>