<?xml version="1.0" ?>
<routes>
    <vType id="vtype-vehicle0" length="4.114469660890878" mass="1795.803792336523" accel="2.1" decel="3.366722182016444" emergencyDecel="11.175939464342035" minGap="9.715410374357349" vClass="passenger" emissionClass="HBEFA4/PC_petrol_Euro-4" color="#3498DB" guiShape="passenger/sedan"/>
    <vType id="vtype-vehicle1" length="5.334623953045439" mass="1581.0020937090871" accel="2.1" decel="4.919091481023826" emergencyDecel="10.775985459571272" minGap="7.789309127368834" vClass="passenger" emissionClass="HBEFA4/PC_diesel_Euro-5" color="#3498DB" guiShape="passenger/sedan"/>
    <vType id="vtype-vehicle2" length="5.036332658235656" mass="1627.6760270669392" accel="3.064801719437026" decel="3.7283857913749814" emergencyDecel="11.842762419068826" minGap="5.935453171841321" vClass="passenger" emissionClass="HBEFA4/PC_petrol_Euro-6ab" color="#3498DB" guiShape="passenger/sedan"/>
    <vType id="vtype-vehicle3" length="3.0707641174518425" mass="1590.2821683925533" accel="2.4675463450365256" decel="4.7898353394406445" emergencyDecel="10.249908508107769" minGap="8.21356756473255" vClass="passenger" emissionClass="HBEFA4/PC_petrol_Euro-3" color="#3498DB" guiShape="passenger/sedan"/>
    <vType id="vtype-vehicle4" length="4.096954601063839" mass="1861.3360096941403" accel="3.2952440007874815" decel="2.3460972551195014" emergencyDecel="9.168111295336882" minGap="7.8238599379375495" vClass="passenger" emissionClass="HBEFA4/PC_diesel_Euro-6ab" color="#3498DB" guiShape="passenger/sedan"/>
    <vType id="vtype-vehicle5" length="5.449051069806419" mass="1515.9441300633343" accel="2.1" decel="4.119058541898581" emergencyDecel="10.34771991463311" minGap="4.8213065089894025" vClass="passenger" emissionClass="HBEFA4/PC_petrol_Euro-4" color="#3498DB" guiShape="passenger/sedan"/>
    <vType id="vtype-vehicle6" length="5.545766117017045" mass="1636.0953803296404" accel="4.078704132871229" decel="6.2167864180992005" emergencyDecel="9.848091875784597" minGap="8.859440498444318" vClass="passenger" emissionClass="HBEFA4/PC_petrol_Euro-6ab" color="#3498DB" guiShape="passenger/sedan"/>
    <vType id="vtype-vehicle7" length="2.833214107794965" mass="1470.4178481568172" accel="2.1" decel="4.760470756213682" emergencyDecel="10.185433327579474" minGap="5.718757897475644" vClass="passenger" emissionClass="HBEFA4/PC_petrol_Euro-4" color="#3498DB" guiShape="passenger/sedan"/>
    <vType id="vtype-vehicle8" length="4.155713280114078" mass="1752.3740965837374" accel="2.1" decel="3.0405731953733675" emergencyDecel="10.212781104347247" minGap="10.827850161800178" vClass="passenger" emissionClass="HBEFA4/PC_diesel_Euro-5" color="#3498DB" guiShape="passenger/sedan"/>
    <vType id="vtype-vehicle9" length="5.974022964094247" mass="1612.3010496198012" accel="2.1" decel="4.009999896390888" emergencyDecel="9.066991886301436" minGap="10.635352864969835" vClass="passenger" emissionClass="HBEFA4/PC_diesel_Euro-4" color="#3498DB" guiShape="passenger/sedan"/>
    <vType id="vtype-vehicle10" length="4.542317625710618" mass="1581.636232515922" accel="2.1" decel="6.095119445952074" emergencyDecel="11.720628697687758" minGap="2.5330539346524104" vClass="passenger" emissionClass="HBEFA4/PC_petrol_Euro-4" color="#3498DB" guiShape="passenger/sedan"/>
    <vType id="vtype-vehicle11" length="3.9306390964710536" mass="1507.7485826181642" accel="2.1" decel="4.337536713564253" emergencyDecel="9.240857402538792" minGap="8.627681946155278" vClass="passenger" emissionClass="HBEFA4/PC_petrol_Euro-4" color="#3498DB" guiShape="passenger/sedan"/>
    <vType id="vtype-vehicle12" length="4.084893250485468" mass="1587.5493672425034" accel="6.005325265859326" decel="3.0932077860034313" emergencyDecel="8.931711080787158" minGap="6.21145761206321" vClass="passenger" emissionClass="HBEFA4/PC_diesel_Euro-4" color="#3498DB" guiShape="passenger/sedan"/>
    <vType id="vtype-vehicle13" length="3.8196410809695753" mass="1558.2403464013016" accel="2.1" decel="3.1251074342994176" emergencyDecel="7.926003855550941" minGap="9.581532263387226" vClass="passenger" emissionClass="HBEFA4/PC_petrol_Euro-3" color="#3498DB" guiShape="passenger/sedan"/>
    <vType id="vtype-vehicle14" length="6.0206422568876246" mass="1426.0025362063514" accel="4.735083822912117" decel="2.6824795644574593" emergencyDecel="9.759848280172708" minGap="6.0893896327634485" vClass="passenger" emissionClass="HBEFA4/PC_petrol_Euro-4" color="#3498DB" guiShape="passenger/sedan"/>
    <vType id="vtype-vehicle15" length="3.7609915279004977" mass="1315.4355333758417" accel="4.590208347172759" decel="3.9038225856701025" emergencyDecel="9.872451746997728" minGap="3.199480039704043" vClass="passenger" emissionClass="HBEFA4/PC_petrol_Euro-4" color="#3498DB" guiShape="passenger/sedan"/>
    <vType id="vtype-vehicle16" length="5.378882346294955" mass="1291.585097669371" accel="2.2440603650779396" decel="2.3319085280078777" emergencyDecel="9.88933425175786" minGap="8.518747638333648" vClass="passenger" emissionClass="HBEFA4/PC_diesel_Euro-3" color="#3498DB" guiShape="passenger/sedan"/>
    <vType id="vtype-vehicle17" length="4.069982034389907" mass="1911.1595485199068" accel="2.1" decel="4.154925938713343" emergencyDecel="10.307812177333403" minGap="7.211361656908378" vClass="passenger" emissionClass="HBEFA4/PC_diesel_Euro-3" color="#3498DB" guiShape="passenger/sedan"/>
    <vType id="vtype-vehicle18" length="3.488092629533627" mass="1579.005303361089" accel="2.4996587739346747" decel="4.2981401929552225" emergencyDecel="10.18331454985957" minGap="7.9119003525164615" vClass="passenger" emissionClass="HBEFA4/PC_diesel_Euro-4" color="#3498DB" guiShape="passenger/sedan"/>
    <vType id="vtype-vehicle19" length="4.20743883790023" mass="1290.2237274242225" accel="4.094398522345176" decel="3.4043074526412385" emergencyDecel="9.401823920782505" minGap="7.050431765577864" vClass="passenger" emissionClass="HBEFA4/PC_petrol_Euro-4" color="#3498DB" guiShape="passenger/sedan"/>
    <vType id="vtype-vehicle20" length="3.089330278318376" mass="1585.3124139081842" accel="4.824110133012571" decel="4.755785625828602" emergencyDecel="9.595983292079964" minGap="4.260900958254457" vClass="passenger" emissionClass="HBEFA4/PC_petrol_Euro-1" color="#3498DB" guiShape="passenger/sedan"/>
    <vType id="vtype-vehicle21" length="2.5" mass="1329.320562358075" accel="2.1" decel="4.819764985039578" emergencyDecel="10.983837271072202" minGap="8.898920098404798" vClass="passenger" emissionClass="HBEFA4/PC_diesel_Euro-3" color="#3498DB" guiShape="passenger/sedan"/>
    <vType id="vtype-vehicle22" length="4.712923198864466" mass="1502.7797025073573" accel="3.9845858585297202" decel="2" emergencyDecel="10.340379280135988" minGap="1.1971529985716503" vClass="passenger" emissionClass="HBEFA4/PC_petrol_Euro-4" color="#3498DB" guiShape="passenger/sedan"/>
    <vType id="vtype-vehicle23" length="4.194980437571612" mass="1812.7690069191844" accel="4.422328890091466" decel="5.27629047540966" emergencyDecel="10.160403332696278" minGap="5.122937134774006" vClass="passenger" emissionClass="HBEFA4/PC_diesel_Euro-3" color="#3498DB" guiShape="passenger/sedan"/>
    <vType id="vtype-vehicle24" length="2.5" mass="1393.0330759979595" accel="2.1" decel="5.55063610007595" emergencyDecel="10.144531730445104" minGap="10.0236550163776" vClass="passenger" emissionClass="HBEFA4/PC_petrol_Euro-5" color="#3498DB" guiShape="passenger/sedan"/>
    <vType id="vtype-vehicle25" length="5.1792835241566175" mass="1509.0365610208275" accel="2.1" decel="4.136658126477082" emergencyDecel="8.788886149421268" minGap="4.343329131878578" vClass="passenger" emissionClass="HBEFA4/PC_petrol_Euro-6ab" color="#3498DB" guiShape="passenger/sedan"/>
    <vType id="vtype-vehicle26" length="2.5" mass="1612.8550262626156" accel="2.1" decel="3.9096116423916176" emergencyDecel="8.903218922253105" minGap="5.7811439500773325" vClass="passenger" emissionClass="HBEFA4/PC_diesel_Euro-4" color="#3498DB" guiShape="passenger/sedan"/>
    <vType id="vtype-vehicle27" length="5.485822704596635" mass="1654.6625238507652" accel="5.06432425669098" decel="4.291347143550099" emergencyDecel="11.007039647847801" minGap="11.975108090293393" vClass="passenger" emissionClass="HBEFA4/PC_CNG_petrol_Euro-6_(CNG)" color="#3498DB" guiShape="passenger/sedan"/>
    <vType id="vtype-vehicle28" length="3.946313627816134" mass="1645.2452398826465" accel="2.1" decel="2.5594777501340538" emergencyDecel="10.011721625233355" minGap="5.823086315816599" vClass="passenger" emissionClass="HBEFA4/PC_petrol_Euro-5" color="#3498DB" guiShape="passenger/sedan"/>
    <vType id="vtype-vehicle29" length="4.787587313459809" mass="1353.7400047231695" accel="3.2993000200810094" decel="2.6640517712432046" emergencyDecel="10.702156486134555" minGap="7.478622005476248" vClass="passenger" emissionClass="HBEFA4/PC_petrol_Euro-3" color="#3498DB" guiShape="passenger/sedan"/>
    <vType id="vtype-vehicle30" length="3.8221078806280677" mass="1761.5424486673382" accel="3.142213325500073" decel="4.979907938899258" emergencyDecel="11.703407456836288" minGap="6.341556545581649" vClass="passenger" emissionClass="HBEFA4/PC_LPG_petrol_Euro-6_(LPG)" color="#3498DB" guiShape="passenger/sedan"/>
    <vType id="vtype-vehicle31" length="6.595922610828636" mass="1762.7329739068468" accel="2.1" decel="3.99062480443904" emergencyDecel="12.372889559557729" minGap="8.473475968958113" vClass="passenger" emissionClass="HBEFA4/PC_petrol_Euro-2" color="#3498DB" guiShape="passenger/sedan"/>
    <vType id="vtype-vehicle32" length="7.224635884514937" mass="1392.1758830422418" accel="2.9957282004040873" decel="4.46924182737975" emergencyDecel="10.751968977952231" minGap="6.7503551852433175" vClass="passenger" emissionClass="HBEFA4/PC_petrol_Euro-6ab" color="#3498DB" guiShape="passenger/sedan"/>
    <vType id="vtype-vehicle33" length="4.659893582463129" mass="1644.5184319687273" accel="2.1" decel="5.998676238995634" emergencyDecel="10.737630821034697" minGap="6.417143490294975" vClass="passenger" emissionClass="HBEFA4/PC_diesel_Euro-4" color="#3498DB" guiShape="passenger/sedan"/>
    <vType id="vtype-vehicle34" length="3.700516613890485" mass="1485.3605823800524" accel="6.948614225512154" decel="3.7733883249408997" emergencyDecel="9.956505838491578" minGap="7.930756297598666" vClass="passenger" emissionClass="HBEFA4/PC_PHEV_petrol_Euro-6d_(El)" color="#3498DB" guiShape="passenger/sedan"/>
    <vType id="vtype-vehicle35" length="3.536635594079034" mass="1620.483314458797" accel="3.9509305668537635" decel="6.02197172502324" emergencyDecel="10.560115866609339" minGap="8.01162580615339" vClass="passenger" emissionClass="HBEFA4/PC_diesel_Euro-5" color="#3498DB" guiShape="passenger/sedan"/>
    <vType id="vtype-vehicle36" length="4.553457593174772" mass="1486.8793935496922" accel="2.1" decel="3.5917175171126354" emergencyDecel="9.14778206921149" minGap="5.06760489901534" vClass="passenger" emissionClass="HBEFA4/PC_petrol_Euro-4" color="#3498DB" guiShape="passenger/sedan"/>
    <vType id="vtype-vehicle37" length="4.684356793138224" mass="1716.1524577362543" accel="2.1" decel="2.3372175061622" emergencyDecel="9.094144941413688" minGap="4.943329848354942" vClass="passenger" emissionClass="HBEFA4/PC_LPG_petrol_Euro-2_(LPG)" color="#3498DB" guiShape="passenger/sedan"/>
    <vType id="vtype-vehicle38" length="3.970144926922626" mass="1470.0550027325078" accel="3.98979656447939" decel="3.442686261289258" emergencyDecel="9.754265382779161" minGap="8.279394044243968" vClass="passenger" emissionClass="HBEFA4/PC_petrol_Euro-6ab" color="#3498DB" guiShape="passenger/sedan"/>
    <vType id="vtype-vehicle39" length="5.624163086886908" mass="1576.7031216553157" accel="2.1" decel="3.3675704045532746" emergencyDecel="9.143691966925374" minGap="6.105426930946267" vClass="passenger" emissionClass="HBEFA4/PC_petrol_Euro-4" color="#3498DB" guiShape="passenger/sedan"/>
    <vType id="vtype-vehicle40" length="7.09383898931484" mass="1773.1670963304286" accel="5.14452666515561" decel="5.332997109044238" emergencyDecel="10.504493917456246" minGap="5.443405852900579" vClass="passenger" emissionClass="HBEFA4/PC_petrol_Euro-6ab" color="#3498DB" guiShape="passenger/sedan"/>
    <vType id="vtype-vehicle41" length="3.2402636465947574" mass="1714.6716725942342" accel="2.1" decel="3.3789711580531976" emergencyDecel="9.281634636594424" minGap="5.093296737025701" vClass="passenger" emissionClass="HBEFA4/PC_diesel_Euro-2" color="#3498DB" guiShape="passenger/sedan"/>
    <vType id="vtype-vehicle42" length="5.065518750765423" mass="1416.0392638786668" accel="4.65551861816834" decel="4.02828179705389" emergencyDecel="9.282044503897508" minGap="8.197554619695039" vClass="passenger" emissionClass="HBEFA4/PC_petrol_Euro-4" color="#3498DB" guiShape="passenger/sedan"/>
    <vType id="vtype-vehicle43" length="5.486894760357744" mass="1563.5110888905879" accel="3.949812939720794" decel="3.6026621421334784" emergencyDecel="10.21790444740712" minGap="8.243045507469983" vClass="passenger" emissionClass="HBEFA4/PC_diesel_Euro-6ab" color="#3498DB" guiShape="passenger/sedan"/>
    <vType id="vtype-vehicle44" length="3.8706627318750435" mass="1741.8487398761874" accel="3.7610500307739425" decel="3.1887775536219856" emergencyDecel="11.424819905075633" minGap="6.72160934749143" vClass="passenger" emissionClass="HBEFA4/PC_diesel_Euro-5" color="#3498DB" guiShape="passenger/sedan"/>
    <vType id="vtype-vehicle45" length="5.013805502796941" mass="1593.8477689889937" accel="2.1" decel="6.432737802265537" emergencyDecel="9.861591031719495" minGap="4.893411406724248" vClass="passenger" emissionClass="HBEFA4/PC_diesel_Euro-4" color="#3498DB" guiShape="passenger/sedan"/>
    <vType id="vtype-vehicle46" length="5.526122762369809" mass="1541.7252493439419" accel="2.1" decel="4.280629765277178" emergencyDecel="11.205567535153385" minGap="8.47937415332791" vClass="passenger" emissionClass="HBEFA4/PC_diesel_Euro-6ab" color="#3498DB" guiShape="passenger/sedan"/>
    <vType id="vtype-vehicle47" length="4.5831340940855245" mass="1828.9011880092633" accel="3.0671205073418557" decel="5.084218349048129" emergencyDecel="9.693280587667413" minGap="4.361608302272268" vClass="passenger" emissionClass="HBEFA4/PC_diesel_Euro-5" color="#3498DB" guiShape="passenger/sedan"/>
    <vType id="vtype-vehicle48" length="6.8401432716889845" mass="1537.5096491890467" accel="3.8239309029097583" decel="3.644659969708656" emergencyDecel="10.701705101336238" minGap="7.92184148735773" vClass="passenger" emissionClass="HBEFA4/PC_petrol_Euro-4" color="#3498DB" guiShape="passenger/sedan"/>
    <vType id="vtype-vehicle49" length="5.850756467356689" mass="1618.0412732752727" accel="2.5369012784807294" decel="4.306143763622727" emergencyDecel="10.521661360233026" minGap="8.028613599756401" vClass="passenger" emissionClass="HBEFA4/PC_diesel_Euro-3" color="#3498DB" guiShape="passenger/sedan"/>
    <vType id="vtype-vehicle50" length="5.1164773636447975" mass="1948.3961739657543" accel="5.349483536007231" decel="3.790911389511961" emergencyDecel="9.896337748807703" minGap="9.197013743353937" vClass="passenger" emissionClass="HBEFA4/PC_petrol_Euro-1" color="#3498DB" guiShape="passenger/sedan"/>
    <vType id="vtype-vehicle51" length="3.2041395922025826" mass="1686.8017152076786" accel="4.990575220681108" decel="2.2130187249562683" emergencyDecel="9.562787438322612" minGap="7.15440654613814" vClass="passenger" emissionClass="HBEFA4/PC_petrol_Euro-6ab" color="#3498DB" guiShape="passenger/sedan"/>
    <vType id="vtype-vehicle52" length="5.047568624610214" mass="1536.6585500001909" accel="2.1" decel="3.8669778859626445" emergencyDecel="9.921915123464087" minGap="8.678446591632849" vClass="passenger" emissionClass="HBEFA4/PC_petrol_Euro-6ab" color="#3498DB" guiShape="passenger/sedan"/>
    <vType id="vtype-vehicle53" length="3.9272477710817584" mass="1661.6822572497827" accel="2.1" decel="4.3847010275829135" emergencyDecel="10.340123349279297" minGap="10.032655220783615" vClass="passenger" emissionClass="HBEFA4/PC_petrol_Euro-6ab" color="#3498DB" guiShape="passenger/sedan"/>
    <vType id="vtype-vehicle54" length="5.54796728720675" mass="1432.8940216215497" accel="2.1" decel="4.295160013796666" emergencyDecel="9.605109911351633" minGap="5.164412448478763" vClass="passenger" emissionClass="HBEFA4/PC_petrol_Euro-6ab" color="#3498DB" guiShape="passenger/sedan"/>
    <vType id="vtype-vehicle55" length="6.1739348170209585" mass="1631.7170305538366" accel="3.489913103988838" decel="3.422246500522256" emergencyDecel="10.150480771112308" minGap="5.548795130735299" vClass="passenger" emissionClass="HBEFA4/PC_LPG_petrol_Euro-5_(LPG)" color="#3498DB" guiShape="passenger/sedan"/>
    <vType id="vtype-vehicle56" length="3.007432827379346" mass="1739.179348364594" accel="2.1" decel="3.0601884383051337" emergencyDecel="9.602117563799025" minGap="5.5799711663128395" vClass="passenger" emissionClass="HBEFA4/PC_petrol_Euro-3" color="#3498DB" guiShape="passenger/sedan"/>
    <vType id="vtype-vehicle57" length="4.561251745978044" mass="1748.0507609549768" accel="7.541277226882319" decel="4.1764016586124395" emergencyDecel="9.799758022512897" minGap="8.385781694820547" vClass="passenger" emissionClass="HBEFA4/PC_diesel_Euro-6ab" color="#3498DB" guiShape="passenger/sedan"/>
    <vType id="vtype-vehicle58" length="4.07062184052003" mass="1246.118066239352" accel="3.7457883615631555" decel="2.979310086614652" emergencyDecel="9.9324043157391" minGap="7.829607723870454" vClass="passenger" emissionClass="HBEFA4/PC_diesel_1986-1988" color="#3498DB" guiShape="passenger/sedan"/>
    <vType id="vtype-vehicle59" length="4.286369292480597" mass="1669.3837822765388" accel="3.075208011049665" decel="2" emergencyDecel="9.599247629593691" minGap="8.3030053410328" vClass="passenger" emissionClass="HBEFA4/PC_diesel_Euro-6ab" color="#3498DB" guiShape="passenger/sedan"/>
    <vType id="vtype-vehicle60" length="3.946619870214097" mass="1550.5004493726924" accel="2.839889667808211" decel="4.843651215687704" emergencyDecel="9.385494577254937" minGap="5.836809711621844" vClass="passenger" emissionClass="HBEFA4/PC_diesel_Euro-3" color="#3498DB" guiShape="passenger/sedan"/>
    <vType id="vtype-vehicle61" length="6.642797805404694" mass="1641.3388860233597" accel="2.328548277743082" decel="4.361807219691471" emergencyDecel="8.770426247664833" minGap="5.83872673666121" vClass="passenger" emissionClass="HBEFA4/PC_diesel_Euro-6ab" color="#3498DB" guiShape="passenger/sedan"/>
    <vType id="vtype-vehicle62" length="4.79714694771956" mass="1692.1008622877755" accel="2.1" decel="5.042617877849335" emergencyDecel="7" minGap="8.331944391619974" vClass="passenger" emissionClass="HBEFA4/PC_petrol_Euro-3" color="#3498DB" guiShape="passenger/sedan"/>
    <vType id="vtype-vehicle63" length="5.116488733992687" mass="1560.8439333745605" accel="5.396964734013898" decel="3.21127767383271" emergencyDecel="10.059398559742123" minGap="7.6496676202155225" vClass="passenger" emissionClass="HBEFA4/PC_petrol_PreEuro_3WCat_1987-90" color="#3498DB" guiShape="passenger/sedan"/>
    <vType id="vtype-vehicle64" length="5.764045746102903" mass="1368.8702919327743" accel="2.7002825427597874" decel="2.3086069128048865" emergencyDecel="11.674690199778404" minGap="6.414338729981216" vClass="passenger" emissionClass="HBEFA4/PC_diesel_Euro-4" color="#3498DB" guiShape="passenger/sedan"/>
    <vType id="vtype-vehicle65" length="3.7777649316688224" mass="1593.2571829253025" accel="3.7791346470955824" decel="4.242367274307502" emergencyDecel="12.294019274158195" minGap="6.454329248357967" vClass="passenger" emissionClass="HBEFA4/PC_petrol_Euro-4" color="#3498DB" guiShape="passenger/sedan"/>
    <vType id="vtype-vehicle66" length="4.15874792010403" mass="1741.4965694760017" accel="2.1" decel="4.749729019693311" emergencyDecel="8.860432122525125" minGap="9.462889663060414" vClass="passenger" emissionClass="HBEFA4/PC_diesel_Euro-5" color="#3498DB" guiShape="passenger/sedan"/>
    <vType id="vtype-vehicle67" length="5.132138743510968" mass="1531.9662862296545" accel="3.722224931065482" decel="2" emergencyDecel="8.534874548935946" minGap="9.212334269093578" vClass="passenger" emissionClass="HBEFA4/PC_petrol_PreEuro_3WCat_1987-90" color="#3498DB" guiShape="passenger/sedan"/>
    <vType id="vtype-vehicle68" length="4.1427641113564375" mass="1516.4617743621836" accel="4.465734366934416" decel="4.21637554500663" emergencyDecel="9.921041988183818" minGap="9.165854746553263" vClass="passenger" emissionClass="HBEFA4/PC_LPG_petrol_Euro-5_(LPG)" color="#3498DB" guiShape="passenger/sedan"/>
    <vType id="vtype-vehicle69" length="4.0520137475603235" mass="1474.6751492237565" accel="2.1" decel="4.203705954775226" emergencyDecel="9.039360703757348" minGap="7.316904399811399" vClass="passenger" emissionClass="HBEFA4/PC_petrol_PreEuro_3WCat_1987-90" color="#3498DB" guiShape="passenger/sedan"/>
    <vType id="vtype-vehicle70" length="4.479651072975359" mass="1666.8012168814491" accel="3.98378768520658" decel="2.9220083114848223" emergencyDecel="7.608404375834434" minGap="5.647849560391216" vClass="passenger" emissionClass="HBEFA4/PC_petrol_Euro-4" color="#3498DB" guiShape="passenger/sedan"/>
    <vType id="vtype-vehicle71" length="2.8504674781616393" mass="1427.250863587107" accel="5.0281701381894095" decel="5.406329599842123" emergencyDecel="11.081299535667156" minGap="9.194437050839102" vClass="passenger" emissionClass="HBEFA4/PC_petrol_Euro-5" color="#3498DB" guiShape="passenger/sedan"/>
    <vType id="vtype-vehicle72" length="5.362667234201213" mass="1748.5661481870331" accel="5.296115936878535" decel="3.2034354552750974" emergencyDecel="8.606962946145135" minGap="8.576650687942175" vClass="passenger" emissionClass="HBEFA4/PC_petrol_Euro-4" color="#3498DB" guiShape="passenger/sedan"/>
    <vType id="vtype-vehicle73" length="3.0105058338719717" mass="1700.864123609414" accel="3.743284150001068" decel="5.2161255444028285" emergencyDecel="10.990712192274394" minGap="2.6320584113640413" vClass="passenger" emissionClass="HBEFA4/PC_diesel_Euro-5" color="#3498DB" guiShape="passenger/sedan"/>
    <vType id="vtype-vehicle74" length="4.77366782022067" mass="1468.3377718046545" accel="2.1" decel="3.066378517275301" emergencyDecel="10.355034404093754" minGap="9.203176244180543" vClass="passenger" emissionClass="HBEFA4/PC_diesel_Euro-6ab" color="#3498DB" guiShape="passenger/sedan"/>
    <vType id="vtype-vehicle75" length="4.8944200013066235" mass="1685.9373144201227" accel="2.1" decel="4.166097834013628" emergencyDecel="9.005473220814352" minGap="3.594001394823761" vClass="passenger" emissionClass="HBEFA4/PC_diesel_Euro-4" color="#3498DB" guiShape="passenger/sedan"/>
    <vType id="vtype-vehicle76" length="5.488896183369962" mass="1712.4606379426539" accel="2.1" decel="4.550254047830666" emergencyDecel="10.96533275233604" minGap="8.411992902165103" vClass="passenger" emissionClass="HBEFA4/PC_diesel_Euro-3" color="#3498DB" guiShape="passenger/sedan"/>
    <vType id="vtype-vehicle77" length="5.2075492578133655" mass="1428.9419788536866" accel="3.3458911016306145" decel="2.8183621825323546" emergencyDecel="9.374291053160896" minGap="7.208587663553951" vClass="passenger" emissionClass="HBEFA4/PC_diesel_Euro-6ab" color="#3498DB" guiShape="passenger/sedan"/>
    <vType id="vtype-vehicle78" length="6.778773961407412" mass="1545.0490938645576" accel="3.043686757932897" decel="4.5678639736039" emergencyDecel="9.604288076475116" minGap="7.368198968600359" vClass="passenger" emissionClass="HBEFA4/PC_CNG_petrol_Euro-6_(CNG)" color="#3498DB" guiShape="passenger/sedan"/>
    <vType id="vtype-vehicle79" length="4.193517058890517" mass="1483.520526504983" accel="3.872771888702447" decel="2" emergencyDecel="10.078380614947203" minGap="6.691412620805629" vClass="passenger" emissionClass="HBEFA4/PC_petrol_Euro-4" color="#3498DB" guiShape="passenger/sedan"/>
    <vType id="vtype-vehicle80" length="5.052957697399435" mass="1474.8502600711938" accel="2.1" decel="4.604369832727898" emergencyDecel="11.060533855871856" minGap="6.7513368274379" vClass="passenger" emissionClass="HBEFA4/PC_petrol_PreEuro_3WCat_1987-90" color="#3498DB" guiShape="passenger/sedan"/>
    <vType id="vtype-vehicle81" length="3.9982288131993453" mass="1909.2778725659057" accel="6.908181690180468" decel="3.889441201917198" emergencyDecel="10.046832214633" minGap="2.1036352612178923" vClass="passenger" emissionClass="HBEFA4/PC_petrol_Euro-3" color="#3498DB" guiShape="passenger/sedan"/>
    <vType id="vtype-vehicle82" length="3.3146273225722442" mass="1622.82334230686" accel="2.1" decel="4.482267403217717" emergencyDecel="8.47929501548665" minGap="8.574884106612133" vClass="passenger" emissionClass="HBEFA4/PC_petrol_Euro-5" color="#3498DB" guiShape="passenger/sedan"/>
    <vType id="vtype-vehicle83" length="3.5843108466381084" mass="1735.6743997041056" accel="2.2395939096903907" decel="3.3492418662807344" emergencyDecel="9.114777938306517" minGap="8.082588830069641" vClass="passenger" emissionClass="HBEFA4/PC_diesel_Euro-6ab" color="#3498DB" guiShape="passenger/sedan"/>
    <vType id="vtype-vehicle84" length="3.9164612397210505" mass="1869.5253881176327" accel="6.773045068363009" decel="5.381461777737113" emergencyDecel="10.260217889850534" minGap="5.422976039567981" vClass="passenger" emissionClass="HBEFA4/PC_diesel_Euro-6ab" color="#3498DB" guiShape="passenger/sedan"/>
    <vType id="vtype-vehicle85" length="5.582081895266276" mass="1427.483614612447" accel="3.46799446565818" decel="4.145334206322315" emergencyDecel="9.218776186077255" minGap="8.931276592623995" vClass="passenger" emissionClass="HBEFA4/PC_petrol_PreEuro_3WCat_1987-90" color="#3498DB" guiShape="passenger/sedan"/>
    <vType id="vtype-vehicle86" length="5.1839564569488825" mass="1492.1325179635348" accel="2.1" decel="2.322096355922331" emergencyDecel="9.241321705443944" minGap="1.7713857584215749" vClass="passenger" emissionClass="HBEFA4/PC_petrol_Euro-2" color="#3498DB" guiShape="passenger/sedan"/>
    <vType id="vtype-vehicle87" length="5.555799215769937" mass="1511.1223389115787" accel="3.9376855205692465" decel="4.199371989348773" emergencyDecel="10.592193883734568" minGap="7.981099440437685" vClass="passenger" emissionClass="HBEFA4/PC_diesel_Euro-3" color="#3498DB" guiShape="passenger/sedan"/>
    <vType id="vtype-vehicle88" length="4.699215370453361" mass="1477.6500664582418" accel="2.1" decel="3.3957398229289737" emergencyDecel="9.847373917243464" minGap="8.38870924115107" vClass="passenger" emissionClass="HBEFA4/PC_diesel_Euro-5" color="#3498DB" guiShape="passenger/sedan"/>
    <vType id="vtype-vehicle89" length="2.5" mass="1841.7032909104453" accel="6.441786788636286" decel="2" emergencyDecel="8.660146829006221" minGap="7.326550222866284" vClass="passenger" emissionClass="HBEFA4/PC_petrol_Euro-5" color="#3498DB" guiShape="passenger/sedan"/>
    <vType id="vtype-vehicle90" length="5.245820314993647" mass="1474.8312548719898" accel="2.1" decel="3.1689997464320037" emergencyDecel="10.49872326942994" minGap="3.3423829247925387" vClass="passenger" emissionClass="HBEFA4/PC_petrol_Euro-6ab" color="#3498DB" guiShape="passenger/sedan"/>
    <vType id="vtype-vehicle91" length="4.695653380240931" mass="1603.842329788927" accel="2.261987014124621" decel="2.805734334411911" emergencyDecel="10.469018752190909" minGap="8.512400244922938" vClass="passenger" emissionClass="HBEFA4/PC_LPG_petrol_Euro-5_(LPG)" color="#3498DB" guiShape="passenger/sedan"/>
    <vType id="vtype-vehicle92" length="4.6201237568008775" mass="1823.9868094459196" accel="2.444596064739436" decel="4.338361195633304" emergencyDecel="10.724524610690553" minGap="3.861036859398881" vClass="passenger" emissionClass="HBEFA4/PC_petrol_PreEuro_3WCat_1987-90" color="#3498DB" guiShape="passenger/sedan"/>
    <vType id="vtype-vehicle93" length="4.292578111390374" mass="1745.646425195384" accel="4.695630008859046" decel="2.29611662382245" emergencyDecel="12.472137319224876" minGap="4.555502376583073" vClass="passenger" emissionClass="HBEFA4/PC_diesel_Euro-4" color="#3498DB" guiShape="passenger/sedan"/>
    <vType id="vtype-vehicle94" length="6.351763574405547" mass="1552.7861404686923" accel="8.506511996442072" decel="3.434175427828977" emergencyDecel="7.799085765393766" minGap="9.001026240716321" vClass="passenger" emissionClass="HBEFA4/PC_petrol_Euro-3" color="#3498DB" guiShape="passenger/sedan"/>
    <vType id="vtype-vehicle95" length="5.2634578966612" mass="1394.4821021623961" accel="2.1" decel="2" emergencyDecel="10.504544307316566" minGap="3.2529539489233827" vClass="passenger" emissionClass="HBEFA4/PC_PHEV_petrol_Euro-6d_(El)" color="#3498DB" guiShape="passenger/sedan"/>
    <vType id="vtype-vehicle96" length="6.248582857549796" mass="1677.3500118828251" accel="2.1" decel="5.4297173839450785" emergencyDecel="9.745369405107303" minGap="11.492348631965292" vClass="passenger" emissionClass="HBEFA4/PC_petrol_Euro-4" color="#3498DB" guiShape="passenger/sedan"/>
    <vType id="vtype-vehicle97" length="3.480404728319943" mass="1693.8950387733062" accel="3.0965722617154285" decel="4.446810239025634" emergencyDecel="8.563981610050128" minGap="9.401279426208276" vClass="passenger" emissionClass="HBEFA4/PC_petrol_Euro-4" color="#3498DB" guiShape="passenger/sedan"/>
    <vType id="vtype-vehicle98" length="3.4113217704107774" mass="1748.9791169661169" accel="2.1" decel="3.3973325289896827" emergencyDecel="9.588228029407992" minGap="9.701982789447776" vClass="passenger" emissionClass="HBEFA4/PC_diesel_Euro-4" color="#3498DB" guiShape="passenger/sedan"/>
    <vType id="vtype-vehicle99" length="3.15026036912066" mass="1523.5302374259727" accel="3.037430565360815" decel="3.1793908399172794" emergencyDecel="11.00256566380944" minGap="4.371739315775392" vClass="passenger" emissionClass="HBEFA4/PC_diesel_Euro-5" color="#3498DB" guiShape="passenger/sedan"/>