<?xml version="1.0" ?>
<routes>
    <vType id="vtype-vehicle659" length="4.276765055483424" mass="2358.5688172140663" accel="5.217965970626399" decel="3.3324710280720784" emergencyDecel="5.802945653820108" minGap="5.631364443571087" color="#8A2BE2" guiShape="passenger/hatchback"/>
    <vType id="vtype-vehicle807" length="4.92290671776855" mass="2298.8918409414787" accel="2.1" decel="4.920658181343166" emergencyDecel="5.653361547851407" minGap="10.52967867448681" color="#DC143C" guiShape="delivery"/>
    <vType id="vtype-vehicle412" length="4.686812504933598" mass="1748.526486645145" accel="2.52009216528545" decel="3.81922270898503" emergencyDecel="7.130171161324459" minGap="5.062380785313215" color="#00BFFF" guiShape="passenger/sedan"/>
    <vType id="vtype-vehicle390" length="5.807785704045534" mass="1473.6441435841016" accel="2.1" decel="3.8653926999794384" emergencyDecel="5.840125016006709" minGap="8.070204471654218" color="#00BFFF" guiShape="passenger/sedan"/>
    <vType id="vtype-vehicle60" length="3.908668897792401" mass="1860.184355562968" accel="2.1" decel="3.0236147994130476" emergencyDecel="6.713366908788045" minGap="5.649366262515787" color="#FFFF00" guiShape="passenger/sedan"/>
    <vType id="vtype-vehicle253" length="4.435186779073783" mass="1734.6348225719635" accel="2.1" decel="1.8417855620875287" emergencyDecel="8.460662214457118" minGap="4.834444202581432" color="#00BFFF" guiShape="passenger/sedan"/>
    <vType id="vtype-vehicle454" length="4.15930471409761" mass="1330.2740141418826" accel="2.1" decel="2.9741208898740497" emergencyDecel="6.435942150604325" minGap="3.353717053061438" color="#00BFFF" guiShape="passenger/sedan"/>
    <vType id="vtype-vehicle451" length="4.7214028205958165" mass="1767.5332759791293" accel="7.092852038680214" decel="4.731080151881707" emergencyDecel="5.49639095210208" minGap="8.589080273602969" color="#00BFFF" guiShape="passenger/sedan"/>
    <vType id="vtype-vehicle161" length="4.261517092049547" mass="1649.351977244513" accel="3.2201180439641366" decel="2.7015171248465024" emergencyDecel="6.2310288656160475" minGap="7.999134873519754" color="#FFFF00" guiShape="passenger/sedan"/>
    <vType id="vtype-vehicle825" length="6.571720372788592" mass="2251.7948428536697" accel="8.063599657818688" decel="5.134942275398732" emergencyDecel="5.126628145181754" minGap="10.475447512796688" color="#DC143C" guiShape="delivery"/>
    <vType id="vtype-vehicle495" length="6.569624991858364" mass="1725.2432952225897" accel="2.302819200786211" decel="3.445956428413675" emergencyDecel="5.414437053117382" minGap="5.616041843114608" color="#00BFFF" guiShape="passenger/sedan"/>
    <vType id="vtype-vehicle641" length="6.161253856060595" mass="1961.2154387090457" accel="2.1" decel="2.1072089846409185" emergencyDecel="4.981127423281021" minGap="12.952219998480112" color="#8A2BE2" guiShape="passenger/hatchback"/>
    <vType id="vtype-vehicle88" length="4.658755003113406" mass="1250.430405573347" accel="4.312767163049744" decel="5.203721646657435" emergencyDecel="5.842901895617075" minGap="7.452417809930292" color="#FFFF00" guiShape="passenger/sedan"/>
    <vType id="vtype-vehicle870" length="5.133555892603364" mass="2396.4256349756615" accel="2.4525189595473975" decel="4.767332322627606" emergencyDecel="5.617175844897956" minGap="7.648907863030026" color="#DC143C" guiShape="delivery"/>
    <vType id="vtype-vehicle190" length="4.758326041718794" mass="1497.8963428950397" accel="2.752023200690275" decel="3.6425998242532973" emergencyDecel="6.705667964790782" minGap="5.4278999279946785" color="#FFFF00" guiShape="passenger/sedan"/>
    <vType id="vtype-vehicle50" length="3.873155751398469" mass="1574.4161805741667" accel="6.081202183016759" decel="1.3620740346485072" emergencyDecel="7.218490447138649" minGap="9.237452012072426" color="#FFFF00" guiShape="passenger/sedan"/>
    <vType id="vtype-vehicle456" length="4.880500862381142" mass="1320.2698915624737" accel="3.4711461304548847" decel="2.336444745227873" emergencyDecel="5.982910182460412" minGap="7.271458828007429" color="#00BFFF" guiShape="passenger/sedan"/>
    <vType id="vtype-vehicle897" length="5.437549491609349" mass="2244.1127699721897" accel="2.1" decel="2.914622283749725" emergencyDecel="5.540146886890055" minGap="10.039217565146453" color="#DC143C" guiShape="delivery"/>
    <vType id="vtype-vehicle194" length="4.484904053121352" mass="1464.817498299248" accel="4.554741316850002" decel="3.9483590851394226" emergencyDecel="6.059294387617739" minGap="9.224375902915954" color="#00BFFF" guiShape="passenger/sedan"/>
    <vType id="vtype-vehicle239" length="4.556518191829293" mass="1514.8128774825186" accel="3.1435365381054132" decel="2.406853489039957" emergencyDecel="5.975852689345144" minGap="6.036162726985934" color="#00BFFF" guiShape="passenger/sedan"/>
    <vType id="vtype-vehicle476" length="4.1573464552992325" mass="1502.060250063424" accel="2.1" decel="0.9582011898683773" emergencyDecel="6.0662646608059925" minGap="8.891440897812119" color="#00BFFF" guiShape="passenger/sedan"/>
    <vType id="vtype-vehicle552" length="5.367240671088368" mass="1974.9079290836862" accel="2.1" decel="3.2165133219541633" emergencyDecel="6.418882032037875" minGap="7.565812793182435" color="#FF4500" guiShape="passenger/hatchback"/>
    <vType id="vtype-vehicle515" length="3.5450080699190343" mass="2007.2568351639227" accel="3.906289841261472" decel="2.243886657977625" emergencyDecel="6.29697989098286" minGap="8.42286079143999" color="#00BFFF" guiShape="passenger/sedan"/>
    <vType id="vtype-vehicle862" length="6.007284160575137" mass="2145.050858227197" accel="2.1" decel="4.990819405577856" emergencyDecel="5.79956885956708" minGap="10.075855063849582" color="#DC143C" guiShape="delivery"/>
    <vType id="vtype-vehicle141" length="6.023395177060836" mass="1451.5626830067513" accel="5.273284998354619" decel="4.337994710766491" emergencyDecel="5.157688704248133" minGap="8.45121148157225" color="#FFFF00" guiShape="passenger/sedan"/>
    <vType id="vtype-vehicle461" length="4.3269596371650545" mass="1893.56010728618" accel="3.305428243041135" decel="2.6944910465570238" emergencyDecel="7.051319903729336" minGap="9.259540928649292" color="#00BFFF" guiShape="passenger/sedan"/>
    <vType id="vtype-vehicle365" length="5.923423739941555" mass="1826.0706311663141" accel="2.1" decel="5.208152491442366" emergencyDecel="5.926143281497308" minGap="3.7387105102193106" color="#00BFFF" guiShape="passenger/sedan"/>
    <vType id="vtype-vehicle744" length="6.121984214572499" mass="2071.796553595469" accel="2.9333141210784914" decel="2.582897476699801" emergencyDecel="6.22482247685976" minGap="4.101328587897299" color="#8A2BE2" guiShape="passenger/hatchback"/>
    <vType id="vtype-vehicle733" length="4.753751389722194" mass="1864.0133151263644" accel="2.8183100353862094" decel="2.6038557119586248" emergencyDecel="5.894517916060981" minGap="5.080979720570254" color="#8A2BE2" guiShape="passenger/hatchback"/>
    <vType id="vtype-vehicle725" length="6.135376242326286" mass="2065.7925961653473" accel="4.809370364770959" decel="4.033194152727103" emergencyDecel="6.1286056739616335" minGap="4.40708878369308" color="#8A2BE2" guiShape="passenger/hatchback"/>
    <vType id="vtype-vehicle132" length="4.104873121612285" mass="1732.0739460752868" accel="3.2337922401722117" decel="2.8202641472455086" emergencyDecel="5.437753753702081" minGap="6.909924839175891" color="#FFFF00" guiShape="passenger/sedan"/>
    <vType id="vtype-vehicle179" length="5.321744502530321" mass="1735.8136147330115" accel="3.0463314872581475" decel="1.3761232654013125" emergencyDecel="6.960944046659712" minGap="6.285343249430286" color="#FFFF00" guiShape="passenger/sedan"/>
    <vType id="vtype-vehicle646" length="5.0334001855563" mass="2103.3913480509855" accel="2.3686459777713935" decel="3.6630401019376047" emergencyDecel="7.313999358268933" minGap="9.444267697964227" color="#8A2BE2" guiShape="passenger/hatchback"/>
    <vType id="vtype-vehicle138" length="4.53148743887408" mass="1612.2310607421632" accel="2.1" decel="3.072479344812084" emergencyDecel="4.589189031946062" minGap="6.299199171270217" color="#FFFF00" guiShape="passenger/sedan"/>
    <vType id="vtype-vehicle188" length="3.885723758694791" mass="1445.2073805077214" accel="2.444624878700808" decel="4.085249818780661" emergencyDecel="7.7090056328699115" minGap="4.926049029186515" color="#FFFF00" guiShape="passenger/sedan"/>
    <vType id="vtype-vehicle207" length="4.720119403030295" mass="1830.566022597897" accel="4.832940200508117" decel="1.5686672811849631" emergencyDecel="5.508299385797739" minGap="5.509430537761165" color="#00BFFF" guiShape="passenger/sedan"/>
    <vType id="vtype-vehicle47" length="5.2099891434698735" mass="1456.2787134846271" accel="3.696259826007364" decel="3.3842170679952543" emergencyDecel="4.820478457465441" minGap="7.2622007227062" color="#FFFF00" guiShape="passenger/sedan"/>
    <vType id="vtype-vehicle874" length="6.115080547689452" mass="2289.386173633712" accel="3.168418103586927" decel="1.6306570752156408" emergencyDecel="8.485982923359284" minGap="7.433485853596641" color="#DC143C" guiShape="delivery"/>
    <vType id="vtype-vehicle899" length="5.822033408507941" mass="2113.28540791413" accel="2.1" decel="3.293826617751171" emergencyDecel="7.275600706720283" minGap="6.3823142376361215" color="#DC143C" guiShape="delivery"/>
    <vType id="vtype-vehicle782" length="4.554020570972987" mass="2052.588557233085" accel="2.6085143118957954" decel="1.904950555501293" emergencyDecel="5.609500129435293" minGap="8.16757637055227" color="#DC143C" guiShape="delivery"/>
    <vType id="vtype-vehicle508" length="4.108593477882202" mass="1414.0554322613643" accel="2.1" decel="2.15226285377203" emergencyDecel="6.774725494849814" minGap="5.229622405856066" color="#00BFFF" guiShape="passenger/sedan"/>
    <vType id="vtype-vehicle172" length="2.9856141046317664" mass="1343.7383587725049" accel="2.1" decel="2.8047590690150086" emergencyDecel="6.06814908807348" minGap="14.82957138227804" color="#FFFF00" guiShape="passenger/sedan"/>
    <vType id="vtype-vehicle519" length="5.023841753463715" mass="1600.174533308508" accel="2.1597283743616815" decel="3.4183074979630805" emergencyDecel="6.137231774666664" minGap="2.973037418475899" color="#00BFFF" guiShape="passenger/sedan"/>
    <vType id="vtype-vehicle767" length="6.703597397886975" mass="2744.430246958701" accel="5.622561731485735" decel="3.907507907725945" emergencyDecel="4.6204898004813115" minGap="5.386537447492831" color="#8A2BE2" guiShape="passenger/hatchback"/>
    <vType id="vtype-vehicle330" length="5.597629236439536" mass="1642.8817318629285" accel="5.073513403555168" decel="3.256680482578009" emergencyDecel="5.686274696773737" minGap="5.79709489483215" color="#00BFFF" guiShape="passenger/sedan"/>
    <vType id="vtype-vehicle414" length="2.998681538877309" mass="1924.0757900195526" accel="3.99035705438753" decel="2.8768692588677567" emergencyDecel="6.822156145732152" minGap="8.319620521090098" color="#00BFFF" guiShape="passenger/sedan"/>
    <vType id="vtype-vehicle609" length="6.333907882046598" mass="2033.6236153820691" accel="2.753453237963471" decel="3.4251773742217755" emergencyDecel="4.571366763413781" minGap="6.83329461407827" color="#8A2BE2" guiShape="passenger/hatchback"/>
    <vType id="vtype-vehicle397" length="4.461871201976354" mass="1197.1178347548682" accel="2.1" decel="3.3730663784108295" emergencyDecel="6.263953420341485" minGap="10.203269919327713" color="#00BFFF" guiShape="passenger/sedan"/>
    <vType id="vtype-vehicle56" length="5.156459892952049" mass="1817.883103630502" accel="2.530608936102832" decel="1.8146657621550595" emergencyDecel="5.986221051313043" minGap="8.305661499635342" color="#FFFF00" guiShape="passenger/sedan"/>
    <vType id="vtype-vehicle692" length="2.8677762943678506" mass="1717.096837432219" accel="2.1" decel="3.3383026062085657" emergencyDecel="5.939697564317741" minGap="6.066012326894572" color="#8A2BE2" guiShape="passenger/hatchback"/>
    <vType id="vtype-vehicle652" length="4.300514449331598" mass="1743.983810598963" accel="2.1" decel="2.5675557052767273" emergencyDecel="7.38638601966427" minGap="9.188524810544568" color="#8A2BE2" guiShape="passenger/hatchback"/>
    <vType id="vtype-vehicle231" length="5.838487830881192" mass="1625.729918803453" accel="3.7030361104936533" decel="3.579500257435936" emergencyDecel="8.134407470286401" minGap="3.284481728669343" color="#00BFFF" guiShape="passenger/sedan"/>
    <vType id="vtype-vehicle665" length="5.5841635713523905" mass="1787.1984555123856" accel="5.1024248383291795" decel="2.9007076252494928" emergencyDecel="6.504429331078592" minGap="3.8328913250161034" color="#8A2BE2" guiShape="passenger/hatchback"/>
    <vType id="vtype-vehicle108" length="5.612365839749453" mass="1800.2629416265484" accel="3.065816392879622" decel="2.748708696991715" emergencyDecel="6.394412728176394" minGap="7.520155565734254" color="#FFFF00" guiShape="passenger/sedan"/>
    <vType id="vtype-vehicle140" length="4.9617715803735525" mass="1581.4173415618059" accel="2.1" decel="4.117768234311685" emergencyDecel="5.841654039428923" minGap="9.165723849561676" color="#FFFF00" guiShape="passenger/sedan"/>
    <vType id="vtype-vehicle315" length="4.94071735382413" mass="1695.9132662597985" accel="2.1" decel="3.096122574600289" emergencyDecel="4.8798043243083775" minGap="5.47406602219621" color="#00BFFF" guiShape="passenger/sedan"/>
    <vType id="vtype-vehicle911" length="13.707197641981335" mass="17582.304921122548" accel="3.664978428874356" decel="3.11431355697617" emergencyDecel="6.3803132330977625" minGap="5.922811164517194" color="#7CFC00" guiShape="bus"/>
    <vType id="vtype-vehicle863" length="3.554263159928162" mass="2358.1088932120692" accel="5.602692013626074" decel="3.365332729214364" emergencyDecel="8.602201395744258" minGap="3.494894294757578" color="#DC143C" guiShape="delivery"/>
    <vType id="vtype-vehicle524" length="6.001627149320026" mass="1333.757847984501" accel="4.3515718651572115" decel="1.2688715072765542" emergencyDecel="7.2246463739233775" minGap="11.673555395538372" color="#00BFFF" guiShape="passenger/sedan"/>
    <vType id="vtype-vehicle648" length="3.9672396372184213" mass="1807.9747966915634" accel="6.90892256679267" decel="2.515655633086644" emergencyDecel="5.214693130782703" minGap="5.413414300654504" color="#8A2BE2" guiShape="passenger/hatchback"/>
    <vType id="vtype-vehicle856" length="5.342756768225733" mass="2091.136019741031" accel="3.320272514624155" decel="2.621820774459461" emergencyDecel="5.124072432766436" minGap="5.330321076901852" color="#DC143C" guiShape="delivery"/>
    <vType id="vtype-vehicle236" length="5.313753153137473" mass="2087.105548804342" accel="2.1" decel="2.995773142078699" emergencyDecel="6.70460039006982" minGap="6.323060238000465" color="#00BFFF" guiShape="passenger/sedan"/>
    <vType id="vtype-vehicle66" length="4.658325314000752" mass="1527.2796391896163" accel="4.0380030616969815" decel="2.85796259661426" emergencyDecel="6.386365630779792" minGap="4.918537355089364" color="#FFFF00" guiShape="passenger/sedan"/>
    <vType id="vtype-vehicle620" length="4.228354606770121" mass="2099.460145808851" accel="2.1" decel="1.254198580933373" emergencyDecel="6.368394409744887" minGap="8.162300416053831" color="#8A2BE2" guiShape="passenger/hatchback"/>
    <vType id="vtype-vehicle90" length="3.7467453667217314" mass="1733.5501655305866" accel="2.1" decel="3.919124826593719" emergencyDecel="7.868428604326824" minGap="9.501872086053444" color="#FFFF00" guiShape="passenger/sedan"/>
    <vType id="vtype-vehicle784" length="4.382533630289381" mass="2186.881169095471" accel="4.668396996850679" decel="2.629451903847103" emergencyDecel="5.246555823140878" minGap="5.322365131223602" color="#DC143C" guiShape="delivery"/>
    <vType id="vtype-vehicle729" length="4.741761878753388" mass="2030.6352915763123" accel="3.280399999624893" decel="4.020530182477422" emergencyDecel="6.391469653215702" minGap="9.583297906121379" color="#8A2BE2" guiShape="passenger/hatchback"/>
    <vType id="vtype-vehicle297" length="5.103169899770937" mass="1651.7001479442365" accel="2.480126786019174" decel="4.272560785284915" emergencyDecel="4.44962744750126" minGap="9.21505233316578" color="#00BFFF" guiShape="passenger/sedan"/>
    <vType id="vtype-vehicle828" length="4.8529197872416505" mass="1780.1754816795865" accel="6.50255391452382" decel="2.1451957493368883" emergencyDecel="4.739037321592689" minGap="7.632003790976377" color="#DC143C" guiShape="delivery"/>
    <vType id="vtype-vehicle639" length="5.776524205052102" mass="2304.155092508792" accel="2.89627349603956" decel="2.246178575572135" emergencyDecel="5.289298203129196" minGap="6.531607142033734" color="#8A2BE2" guiShape="passenger/hatchback"/>
    <vType id="vtype-vehicle276" length="3.810894842033219" mass="1762.2768387053547" accel="3.257295848574328" decel="1.6855710603259415" emergencyDecel="6.10465639106537" minGap="7.472071406604282" color="#00BFFF" guiShape="passenger/sedan"/>
    <vType id="vtype-vehicle549" length="4.374264574617513" mass="1992.4536699797882" accel="4.99422909215678" decel="1.487996790506227" emergencyDecel="4.701984050963583" minGap="6.376969336948733" color="#FF4500" guiShape="passenger/hatchback"/>
    <vType id="vtype-vehicle848" length="4.7405918876702255" mass="1942.0403431294246" accel="2.2020635578209915" decel="3.501465463920312" emergencyDecel="7.276098921396683" minGap="5.973877456738595" color="#DC143C" guiShape="delivery"/>
    <vType id="vtype-vehicle800" length="5.58797178714254" mass="2127.179691347826" accel="4.248841889949535" decel="3.620007261833331" emergencyDecel="6.031353247477098" minGap="8.494764788056388" color="#DC143C" guiShape="delivery"/>
    <vType id="vtype-vehicle110" length="3.615072198430272" mass="1554.1705237571393" accel="2.1" decel="4.137991078210741" emergencyDecel="6.62777194471691" minGap="6.7171540431987795" color="#FFFF00" guiShape="passenger/sedan"/>
    <vType id="vtype-vehicle860" length="5.759522323984879" mass="2231.7594143985752" accel="2.395071518605226" decel="3.5009407703737327" emergencyDecel="4.5000931266553135" minGap="7.4600383034418165" color="#DC143C" guiShape="delivery"/>
    <vType id="vtype-vehicle94" length="7.275902768503155" mass="1470.9622468534606" accel="5.413481143333458" decel="2.6427250842104955" emergencyDecel="4.733941981473713" minGap="6.595009667705457" color="#FFFF00" guiShape="passenger/sedan"/>
    <vType id="vtype-vehicle883" length="3.118068125426182" mass="2182.431333436181" accel="2.7808870442025113" decel="3.5543029603673015" emergencyDecel="6.590037021452038" minGap="3.7197462383212963" color="#DC143C" guiShape="delivery"/>
    <vType id="vtype-vehicle182" length="4.742124756095304" mass="1673.284662108845" accel="5.0484435816921955" decel="1.91288865924249" emergencyDecel="5.199994702108015" minGap="5.750776594744414" color="#FFFF00" guiShape="passenger/sedan"/>
    <vType id="vtype-vehicle838" length="6.5594868501421555" mass="2107.28986626413" accel="2.1" decel="5.235497731746566" emergencyDecel="6.551963400455077" minGap="8.349154795549698" color="#DC143C" guiShape="delivery"/>
    <vType id="vtype-vehicle580" length="5.976494638613501" mass="1888.5738964262378" accel="4.979696928983453" decel="1.1986357607920588" emergencyDecel="6.834512556661818" minGap="6.95298845190155" color="#8A2BE2" guiShape="passenger/hatchback"/>
    <vType id="vtype-vehicle542" length="5.120891749585042" mass="2359.713434441409" accel="2.1" decel="2.6270365203142685" emergencyDecel="6.142342234821786" minGap="3.250816933213031" color="#FF4500" guiShape="passenger/hatchback"/>
    <vType id="vtype-vehicle170" length="5.963692923249113" mass="1848.2025874714188" accel="3.4197432033255337" decel="2.5089357863414374" emergencyDecel="6.29047470840065" minGap="10.992711432465851" color="#FFFF00" guiShape="passenger/sedan"/>
    <vType id="vtype-vehicle52" length="3.5735875884761965" mass="1579.7987919213467" accel="2.1" decel="3.349495551160917" emergencyDecel="5.673282512041843" minGap="6.119820241778791" color="#FFFF00" guiShape="passenger/sedan"/>
    <vType id="vtype-vehicle511" length="7.283495321591211" mass="1644.6867936474962" accel="2.2950520577757283" decel="2.7672618768455806" emergencyDecel="5.716874427790378" minGap="6.053816541959799" color="#00BFFF" guiShape="passenger/sedan"/>
    <vType id="vtype-vehicle369" length="5.39412618784261" mass="1732.1367229309415" accel="4.714709844590658" decel="3.1975028219745343" emergencyDecel="6.365031644156774" minGap="7.9809846066921795" color="#00BFFF" guiShape="passenger/sedan"/>
    <vType id="vtype-vehicle80" length="4.212365037268986" mass="1839.5778598357933" accel="2.1" decel="2.19575690641191" emergencyDecel="8.239385756425975" minGap="8.405264802581943" color="#FFFF00" guiShape="passenger/sedan"/>
    <vType id="vtype-vehicle204" length="5.519326005997054" mass="1150.1298398404756" accel="3.254572284570576" decel="3.5335632352322333" emergencyDecel="4.865794609602668" minGap="6.907969747113113" color="#00BFFF" guiShape="passenger/sedan"/>
    <vType id="vtype-vehicle203" length="4.005325735483495" mass="1524.1661676327733" accel="7.1451228676259095" decel="3.255361484476543" emergencyDecel="5.406637018758423" minGap="7.336286360615679" color="#00BFFF" guiShape="passenger/sedan"/>
    <vType id="vtype-vehicle827" length="4.3320811620268485" mass="2016.7707334343597" accel="3.050659083189824" decel="1.6838861236816565" emergencyDecel="7.104986490490181" minGap="6.371010969636494" color="#DC143C" guiShape="delivery"/>
    <vType id="vtype-vehicle334" length="4.868709620228745" mass="1313.065901513934" accel="2.1" decel="2.1193842537945713" emergencyDecel="7.345955867930461" minGap="7.396862162200319" color="#00BFFF" guiShape="passenger/sedan"/>
    <vType id="vtype-vehicle25" length="5.368051567860243" mass="1613.267164817699" accel="7.664425793902519" decel="1.4376614169891848" emergencyDecel="4.994206058920975" minGap="4.253217319014593" color="#FFFF00" guiShape="passenger/sedan"/>
    <vType id="vtype-vehicle573" length="5.921103359845549" mass="2066.232331363915" accel="4.867194251184722" decel="3.936042242260754" emergencyDecel="5.645549969253369" minGap="8.927040685043725" color="#8A2BE2" guiShape="passenger/hatchback"/>
    <vType id="vtype-vehicle19" length="4.417983619677157" mass="1564.4919248741157" accel="2.616872266566594" decel="3.4575306931570027" emergencyDecel="5.065804067505445" minGap="8.268387670555567" color="#FFFF00" guiShape="passenger/sedan"/>
    <vType id="vtype-vehicle597" length="5.166720203705476" mass="1947.5618689605162" accel="3.162818550831167" decel="3.45382358878955" emergencyDecel="6.112613170440021" minGap="8.536778813114875" color="#8A2BE2" guiShape="passenger/hatchback"/>
    <vType id="vtype-vehicle133" length="5.637399430473608" mass="1716.7606533191095" accel="2.1" decel="3.733837870686285" emergencyDecel="6.519506844212219" minGap="4.418991563973833" color="#FFFF00" guiShape="passenger/sedan"/>
    <vType id="vtype-vehicle186" length="3.6962854399749" mass="1280.931781408537" accel="6.257204525254835" decel="2.445517158068819" emergencyDecel="6.174615419618172" minGap="7.857173565620842" color="#FFFF00" guiShape="passenger/sedan"/>
    <vType id="vtype-vehicle128" length="3.884660445438758" mass="1708.3159392950326" accel="3.7522726646783315" decel="3.1878551394607992" emergencyDecel="6.644938177820851" minGap="5.984040506175977" color="#FFFF00" guiShape="passenger/sedan"/>
    <vType id="vtype-vehicle42" length="3.668712438417821" mass="1585.141915193193" accel="2.1" decel="4.327076274885023" emergencyDecel="8.21617269536022" minGap="6.014099671915814" color="#FFFF00" guiShape="passenger/sedan"/>
    <vType id="vtype-vehicle86" length="3.405585713598005" mass="1867.63855015506" accel="2.1" decel="4.402698589832551" emergencyDecel="5.475267135083117" minGap="8.820658752168656" color="#FFFF00" guiShape="passenger/sedan"/>
    <vType id="vtype-vehicle790" length="6.325214137858393" mass="1850.3987152403793" accel="2.561409855895968" decel="1.9226460264382457" emergencyDecel="4.7283204676027" minGap="6.830592516902608" color="#DC143C" guiShape="delivery"/>
    <vType id="vtype-vehicle687" length="5.141479204139686" mass="2408.488186968729" accel="5.399576173263103" decel="3.0222080682561248" emergencyDecel="6.408055529861223" minGap="5.672357010587507" color="#8A2BE2" guiShape="passenger/hatchback"/>
    <vType id="vtype-vehicle900" length="8.425440719551503" mass="1872.1115988267366" accel="2.1" decel="2.905241733888463" emergencyDecel="5.697860583468019" minGap="4.668409262218658" color="#DC143C" guiShape="delivery"/>
    <vType id="vtype-vehicle338" length="3.377477917924111" mass="1642.0209361969596" accel="5.613490354329085" decel="1.211798442959182" emergencyDecel="7.246764772923266" minGap="9.89637123369594" color="#00BFFF" guiShape="passenger/sedan"/>
    <vType id="vtype-vehicle429" length="5.658398280843427" mass="1635.6251742512777" accel="2.1" decel="3.7086197158047822" emergencyDecel="6.082840142470609" minGap="5.4653582893846355" color="#00BFFF" guiShape="passenger/sedan"/>
    <vType id="vtype-vehicle770" length="4.571926278547233" mass="2188.74027821511" accel="3.6428493490755516" decel="3.1608048200733228" emergencyDecel="5.995390549005405" minGap="7.1455463519887" color="#8A2BE2" guiShape="passenger/hatchback"/>
    <vType id="vtype-vehicle740" length="5.000533447964614" mass="2099.643790349048" accel="7.197783085130517" decel="3.14129589453528" emergencyDecel="4.843718527082309" minGap="5.907095010246073" color="#8A2BE2" guiShape="passenger/hatchback"/>
    <vType id="vtype-vehicle650" length="4.439154001905191" mass="1926.4959548935142" accel="4.422044593411472" decel="2.182954463652477" emergencyDecel="6.975977160748637" minGap="8.568742508284002" color="#8A2BE2" guiShape="passenger/hatchback"/>
    <vType id="vtype-vehicle18" length="5.297293349015662" mass="1607.9333152250965" accel="4.949485704204808" decel="4.346602219616803" emergencyDecel="4.359924598075757" minGap="5.207688849741398" color="#FFFF00" guiShape="passenger/sedan"/>
    <vType id="vtype-vehicle739" length="4.360318517876356" mass="2036.1216806868777" accel="2.1" decel="4.268261485880305" emergencyDecel="5.549610451295876" minGap="9.370422131159728" color="#8A2BE2" guiShape="passenger/hatchback"/>
    <vType id="vtype-vehicle710" length="5.544818470349592" mass="2181.445178924075" accel="2.31230572029679" decel="5.170531470145912" emergencyDecel="6.137922003939602" minGap="8.252351484769427" color="#8A2BE2" guiShape="passenger/hatchback"/>
    <vType id="vtype-vehicle200" length="5.708652303169092" mass="1548.9973886633911" accel="2.1" decel="3.3246402126880477" emergencyDecel="5.947715289144508" minGap="5.964780298566945" color="#00BFFF" guiShape="passenger/sedan"/>
    <vType id="vtype-vehicle67" length="6.379613653337379" mass="1433.3539772742422" accel="6.077741232525474" decel="0.4841217465800063" emergencyDecel="6.583501726072483" minGap="7.74219603585861" color="#FFFF00" guiShape="passenger/sedan"/>
    <vType id="vtype-vehicle43" length="4.046922135211615" mass="2102.9123634036678" accel="2.1" decel="3.6155727892132385" emergencyDecel="4.60789936659185" minGap="11.387279256877516" color="#FFFF00" guiShape="passenger/sedan"/>
    <vType id="vtype-vehicle507" length="5.108025071425463" mass="1370.373544722977" accel="2.1" decel="3.4662951702812137" emergencyDecel="5.909875999982118" minGap="8.073596580042906" color="#00BFFF" guiShape="passenger/sedan"/>
    <vType id="vtype-vehicle279" length="3.7248930612907296" mass="1708.332343546956" accel="2.1" decel="3.700650815250383" emergencyDecel="5.093022249022732" minGap="5.544951174755601" color="#00BFFF" guiShape="passenger/sedan"/>
    <vType id="vtype-vehicle906" length="6.3854249420623805" mass="2481.907930498255" accel="2.1" decel="1.8881114273953397" emergencyDecel="6.566258961499619" minGap="9.574012804188522" color="#FFFFFF" guiShape="delivery"/>
    <vType id="vtype-vehicle854" length="4.135006897375554" mass="2288.6394704422355" accel="4.437671291408783" decel="4.2063313743605155" emergencyDecel="5.876586323727218" minGap="5.674563011686464" color="#DC143C" guiShape="delivery"/>
    <vType id="vtype-vehicle184" length="5.8501206838815465" mass="1682.4722133133102" accel="2.1" decel="3.2318680830869995" emergencyDecel="4.954792044845514" minGap="3.934133166676057" color="#FFFF00" guiShape="passenger/sedan"/>
    <vType id="vtype-vehicle750" length="4.447913441824537" mass="1811.082185781784" accel="5.303907609789714" decel="2.7402763093845817" emergencyDecel="4.339020129447029" minGap="3.313214182640755" color="#8A2BE2" guiShape="passenger/hatchback"/>
    <vType id="vtype-vehicle837" length="5.097978989762385" mass="2380.6406967481703" accel="5.575815117296429" decel="2.123253764891435" emergencyDecel="5.113969846910613" minGap="6.037702349954995" color="#DC143C" guiShape="delivery"/>
    <vType id="vtype-vehicle866" length="5.128507000807548" mass="1981.707350064362" accel="4.835631640138992" decel="4.311960992707761" emergencyDecel="5.37419370772077" minGap="6.202032732876281" color="#DC143C" guiShape="delivery"/>
    <vType id="vtype-vehicle577" length="5.149311003186649" mass="2411.090673176006" accel="2.1090956548761413" decel="2.9789316585320362" emergencyDecel="3.6650944738283036" minGap="5.316845330308766" color="#8A2BE2" guiShape="passenger/hatchback"/>
    <vType id="vtype-vehicle444" length="3.6602246601633106" mass="1225.3668452522286" accel="2.2244458620375784" decel="2.984187436553749" emergencyDecel="6.187079776591261" minGap="8.596151888552189" color="#00BFFF" guiShape="passenger/sedan"/>