<?xml version="1.0" ?>
<routes>
    <vType id="vtype-vehicle0" length="4.779660562090535" mass="1260.4432381681497" accel="5.599454380870313" decel="2.2096292942923483" emergencyDecel="11.009094023119099" minGap="5.964397266492956" vClass="passenger" emissionClass="HBEFA4/PC_petrol_Euro-6ab" color="#3498DB" guiShape="passenger/sedan"/>
    <vType id="vtype-vehicle1" length="4.547170846711818" mass="1340.913189790925" accel="2.5204716183610945" decel="3.3076024710015917" emergencyDecel="10.637836427533037" minGap="7.334713759868603" vClass="passenger" emissionClass="HBEFA4/PC_LPG_petrol_Euro-5_(LPG)" color="#3498DB" guiShape="passenger/sedan"/>
    <vType id="vtype-vehicle2" length="3.6005865626933176" mass="1600.6132769348817" accel="4.52274085157626" decel="3.241203179828979" emergencyDecel="10.195809645516483" minGap="5.048329711956458" vClass="passenger" emissionClass="HBEFA4/PC_diesel_Euro-4" color="#3498DB" guiShape="passenger/sedan"/>
    <vType id="vtype-vehicle3" length="3.087388676227451" mass="1474.4816516167493" accel="2.1" decel="4.464209962320787" emergencyDecel="11.662123571741962" minGap="9.315385852484486" vClass="passenger" emissionClass="HBEFA4/PC_diesel_Euro-6ab" color="#3498DB" guiShape="passenger/sedan"/>
    <vType id="vtype-vehicle4" length="5.20888513908109" mass="1554.7792568607817" accel="4.207254922141364" decel="2.99661747037856" emergencyDecel="10.313585210229501" minGap="6.700185832554945" vClass="passenger" emissionClass="HBEFA4/PC_diesel_Euro-4" color="#3498DB" guiShape="passenger/sedan"/>
    <vType id="vtype-vehicle5" length="3.705419382233444" mass="1690.8009001492198" accel="2.1" decel="4.547982507568948" emergencyDecel="8.99108761168598" minGap="7.173801420764174" vClass="passenger" emissionClass="HBEFA4/PC_petrol_Euro-5" color="#3498DB" guiShape="passenger/sedan"/>
    <vType id="vtype-vehicle6" length="4.745092357558593" mass="1774.4031155135865" accel="2.1" decel="4.287282431935552" emergencyDecel="12.82994999219298" minGap="9.132307142101881" vClass="passenger" emissionClass="HBEFA4/PC_petrol_Euro-3" color="#3498DB" guiShape="passenger/sedan"/>
    <vType id="vtype-vehicle7" length="4.61889263145891" mass="1814.3856264078925" accel="3.4215997329981462" decel="3.8634941913078733" emergencyDecel="10.6220706356163" minGap="5.221704496156164" vClass="passenger" emissionClass="HBEFA4/PC_diesel_Euro-2" color="#3498DB" guiShape="passenger/sedan"/>
    <vType id="vtype-vehicle8" length="4.606376366359168" mass="1707.7066416485964" accel="7.270068376775938" decel="2.259484933568506" emergencyDecel="8.684343349305593" minGap="9.75024190089218" vClass="passenger" emissionClass="HBEFA4/PC_petrol_Euro-4" color="#3498DB" guiShape="passenger/sedan"/>
    <vType id="vtype-vehicle9" length="5.660696626424524" mass="1942.4875917844179" accel="4.360475460895646" decel="4.846599150094935" emergencyDecel="7.86665185506566" minGap="6.500973013119371" vClass="passenger" emissionClass="HBEFA4/PC_petrol_Euro-3" color="#3498DB" guiShape="passenger/sedan"/>
    <vType id="vtype-vehicle10" length="5.20645894633796" mass="1149.494106320301" accel="2.518929161535518" decel="5.638095156783153" emergencyDecel="12.639271054518666" minGap="4.747502317603802" vClass="passenger" emissionClass="HBEFA4/PC_petrol_Euro-5" color="#3498DB" guiShape="passenger/sedan"/>
    <vType id="vtype-vehicle11" length="3.036097295440108" mass="1389.8127696307995" accel="2.415539204486807" decel="5.113764302671608" emergencyDecel="9.192336881686073" minGap="8.641208099594737" vClass="passenger" emissionClass="HBEFA4/PC_diesel_Euro-4" color="#3498DB" guiShape="passenger/sedan"/>
    <vType id="vtype-vehicle12" length="5.051082086497931" mass="1647.7429416645664" accel="4.68760361526116" decel="3.4752422105389527" emergencyDecel="10.914540446170943" minGap="5.8802704976652915" vClass="passenger" emissionClass="HBEFA4/PC_diesel_Euro-6ab" color="#3498DB" guiShape="passenger/sedan"/>
    <vType id="vtype-vehicle13" length="3.1012233828503413" mass="1739.6635854064116" accel="5.647414368205502" decel="4.798615163683896" emergencyDecel="12.62815811718995" minGap="10.655141465202185" vClass="passenger" emissionClass="HBEFA4/PC_diesel_Euro-4" color="#3498DB" guiShape="passenger/sedan"/>
    <vType id="vtype-vehicle14" length="3.1823587605541923" mass="1774.607528089497" accel="2.3238615029354395" decel="4.66260965679243" emergencyDecel="10.728200846254694" minGap="6.045664309740784" vClass="passenger" emissionClass="HBEFA4/PC_diesel_Euro-5" color="#3498DB" guiShape="passenger/sedan"/>
    <vType id="vtype-vehicle15" length="4.783981261072231" mass="1436.5553214744991" accel="3.3253489759204307" decel="4.481686622334602" emergencyDecel="8.994871740552432" minGap="6.7576193869384396" vClass="passenger" emissionClass="HBEFA4/PC_petrol_Euro-4" color="#3498DB" guiShape="passenger/sedan"/>
    <vType id="vtype-vehicle16" length="6.276007592942474" mass="1980.7154316777205" accel="2.3194743365440105" decel="4.6958578960218125" emergencyDecel="9.216908320826255" minGap="8.190752216932099" vClass="passenger" emissionClass="HBEFA4/PC_petrol_Euro-4" color="#3498DB" guiShape="passenger/sedan"/>
    <vType id="vtype-vehicle17" length="3.9421473569552328" mass="1380.0805821252445" accel="2.1" decel="4.07713021651873" emergencyDecel="10.193899164395564" minGap="6.964688161251669" vClass="passenger" emissionClass="HBEFA4/PC_petrol_Euro-6ab" color="#3498DB" guiShape="passenger/sedan"/>
    <vType id="vtype-vehicle18" length="3.642971379497395" mass="1772.2997561163431" accel="2.1" decel="2.228731374181814" emergencyDecel="10.029512378400465" minGap="6.83331154878664" vClass="passenger" emissionClass="HBEFA4/PC_petrol_PreEuro_3WCat_1987-90" color="#3498DB" guiShape="passenger/sedan"/>
    <vType id="vtype-vehicle19" length="4.3586326659878" mass="1681.0912238657554" accel="2.502013030512292" decel="4.173614448325248" emergencyDecel="9.938488385310787" minGap="4.013055865009969" vClass="passenger" emissionClass="HBEFA4/PC_petrol_Euro-6ab" color="#3498DB" guiShape="passenger/sedan"/>
    <vType id="vtype-vehicle20" length="5.034844082540777" mass="1297.6326633979893" accel="2.1" decel="3.1530660460187043" emergencyDecel="9.805409879133357" minGap="5.017757250424625" vClass="passenger" emissionClass="HBEFA4/PC_petrol_PreEuro_3WCat_1987-90" color="#3498DB" guiShape="passenger/sedan"/>
    <vType id="vtype-vehicle21" length="4.160385935742395" mass="1841.1376404518617" accel="3.1880414046081094" decel="4.914822163699101" emergencyDecel="9.697507604852474" minGap="6.489402596601182" vClass="passenger" emissionClass="HBEFA4/PC_petrol_Euro-4" color="#3498DB" guiShape="passenger/sedan"/>
    <vType id="vtype-vehicle22" length="3.3724052672981224" mass="1422.1404903446362" accel="2.6862585586173484" decel="4.571587288189297" emergencyDecel="11.348956478901282" minGap="5.1862768679081475" vClass="passenger" emissionClass="HBEFA4/PC_CNG_petrol_Euro-4_(CNG)" color="#3498DB" guiShape="passenger/sedan"/>
    <vType id="vtype-vehicle23" length="5.718824323431327" mass="1308.7757214508551" accel="3.7835446243710256" decel="3.9940098723240207" emergencyDecel="10.616252045599495" minGap="5.5106042920105125" vClass="passenger" emissionClass="HBEFA4/PC_LPG_petrol_Euro-4_(LPG)" color="#3498DB" guiShape="passenger/sedan"/>
    <vType id="vtype-vehicle24" length="3.5356166931605757" mass="1949.9684211766858" accel="2.1" decel="3.649849608292682" emergencyDecel="11.18059945088536" minGap="6.979185628564398" vClass="passenger" emissionClass="HBEFA4/PC_diesel_Euro-6ab" color="#3498DB" guiShape="passenger/sedan"/>
    <vType id="vtype-vehicle25" length="6.29886686334158" mass="1342.625401383649" accel="2.1" decel="3.543498396105583" emergencyDecel="8.359289902791783" minGap="5.679639412197716" vClass="passenger" emissionClass="HBEFA4/PC_diesel_Euro-2" color="#3498DB" guiShape="passenger/sedan"/>
    <vType id="vtype-vehicle26" length="5.4504826203183745" mass="1787.204446777101" accel="2.2205929245749756" decel="3.385202920530207" emergencyDecel="9.187432388756509" minGap="9.005639461186156" vClass="passenger" emissionClass="HBEFA4/PC_petrol_PreEuro_3WCat_1987-90" color="#3498DB" guiShape="passenger/sedan"/>
    <vType id="vtype-vehicle27" length="4.868799795391475" mass="1240.4487526926" accel="2.1" decel="3.5397317118342193" emergencyDecel="9.854392532714257" minGap="8.454864609291091" vClass="passenger" emissionClass="HBEFA4/PC_diesel_Euro-2" color="#3498DB" guiShape="passenger/sedan"/>
    <vType id="vtype-vehicle28" length="3.9725629667572324" mass="1302.7411043387729" accel="4.734452616607857" decel="4.25618536094507" emergencyDecel="8.998324677852882" minGap="7.0301758555002465" vClass="passenger" emissionClass="HBEFA4/PC_petrol_Euro-4" color="#3498DB" guiShape="passenger/sedan"/>
    <vType id="vtype-vehicle29" length="5.43643248248536" mass="1870.2728166450531" accel="2.1" decel="2.7937099848603175" emergencyDecel="9.989906461159077" minGap="6.1326847626788865" vClass="passenger" emissionClass="HBEFA4/PC_diesel_Euro-5" color="#3498DB" guiShape="passenger/sedan"/>
    <vType id="vtype-vehicle30" length="5.13987714386711" mass="1446.6315623629719" accel="2.3495741399364864" decel="4.0976079133664225" emergencyDecel="10.080066038482578" minGap="5.7935688582990945" vClass="passenger" emissionClass="HBEFA4/PC_PHEV_petrol_Euro-6d_(El)" color="#3498DB" guiShape="passenger/sedan"/>
    <vType id="vtype-vehicle31" length="4.275756569725567" mass="1586.4309431549436" accel="2.483089355455119" decel="3.3494002408478094" emergencyDecel="8.38292882791942" minGap="5.7627599512378245" vClass="passenger" emissionClass="HBEFA4/PC_diesel_Euro-6ab" color="#3498DB" guiShape="passenger/sedan"/>
    <vType id="vtype-vehicle32" length="5.306426887817512" mass="1412.5522614888664" accel="3.5922954488446575" decel="5.902960840660738" emergencyDecel="10.368862665797089" minGap="6.764805923173789" vClass="passenger" emissionClass="HBEFA4/PC_diesel_Euro-4" color="#3498DB" guiShape="passenger/sedan"/>
    <vType id="vtype-vehicle33" length="3.6815829231781243" mass="2015.8299444769625" accel="2.1" decel="4.366315461169755" emergencyDecel="8.577311770499628" minGap="7.748673129847786" vClass="passenger" emissionClass="HBEFA4/PC_LPG_petrol_Euro-6_(LPG)" color="#3498DB" guiShape="passenger/sedan"/>
    <vType id="vtype-vehicle34" length="4.303799365695472" mass="1590.2298068576354" accel="3.0184437722064197" decel="2.6734811489165207" emergencyDecel="10.559154477022393" minGap="6.934919489810526" vClass="passenger" emissionClass="HBEFA4/PC_petrol_Euro-6ab" color="#3498DB" guiShape="passenger/sedan"/>
    <vType id="vtype-vehicle35" length="3.256190232501994" mass="1437.5945728596598" accel="5.054945509730603" decel="3.822136208105921" emergencyDecel="8.939280363790596" minGap="9.574528094657868" vClass="passenger" emissionClass="HBEFA4/PC_diesel_1986-1988" color="#3498DB" guiShape="passenger/sedan"/>
    <vType id="vtype-vehicle36" length="4.209948331371754" mass="1576.3226881039932" accel="2.9298664975699054" decel="4.310571726829751" emergencyDecel="9.431460188049591" minGap="7.251151594345103" vClass="passenger" emissionClass="HBEFA4/PC_petrol_Euro-2" color="#3498DB" guiShape="passenger/sedan"/>
    <vType id="vtype-vehicle37" length="4.684599881972316" mass="1746.3117061328262" accel="3.2769332310030053" decel="4.219484343353636" emergencyDecel="10.012154415591482" minGap="8.273022230721049" vClass="passenger" emissionClass="HBEFA4/PC_petrol_Euro-1" color="#3498DB" guiShape="passenger/sedan"/>
    <vType id="vtype-vehicle38" length="4.815574937293161" mass="1492.9828160352945" accel="2.1" decel="2.446793218106049" emergencyDecel="9.692570725118223" minGap="8.586661425977752" vClass="passenger" emissionClass="HBEFA4/PC_PHEV_petrol_Euro-6d_(El)" color="#3498DB" guiShape="passenger/sedan"/>
    <vType id="vtype-vehicle39" length="4.346282689039055" mass="1330.349356007699" accel="3.9150232850946933" decel="5.000615315143014" emergencyDecel="11.05483988227275" minGap="8.732000011472412" vClass="passenger" emissionClass="HBEFA4/PC_diesel_Euro-4" color="#3498DB" guiShape="passenger/sedan"/>
    <vType id="vtype-vehicle40" length="4.484992443050401" mass="1876.522894218973" accel="2.1" decel="2.558729595707997" emergencyDecel="10.362787633794744" minGap="8.239239475271347" vClass="passenger" emissionClass="HBEFA4/PC_petrol_PreEuro_3WCat_1987-90" color="#3498DB" guiShape="passenger/sedan"/>
    <vType id="vtype-vehicle41" length="5.575180153870937" mass="1932.2856661822389" accel="2.1" decel="3.7270698758818384" emergencyDecel="8.083390250763259" minGap="4.63719636333208" vClass="passenger" emissionClass="HBEFA4/PC_petrol_PreEuro_3WCat_1987-90" color="#3498DB" guiShape="passenger/sedan"/>
    <vType id="vtype-vehicle42" length="5.527508662360116" mass="1591.6996923893046" accel="2.8144351051577363" decel="4.30622138588658" emergencyDecel="9.339773015240644" minGap="12.267842704737248" vClass="passenger" emissionClass="HBEFA4/PC_diesel_Euro-4" color="#3498DB" guiShape="passenger/sedan"/>
    <vType id="vtype-vehicle43" length="4.867544318845606" mass="1711.342471273121" accel="2.9951334801679743" decel="5.38029248743277" emergencyDecel="10.150906213035988" minGap="8.449365381526718" vClass="passenger" emissionClass="HBEFA4/PC_petrol_Euro-4" color="#3498DB" guiShape="passenger/sedan"/>
    <vType id="vtype-vehicle44" length="3.094868284682615" mass="1696.07918757489" accel="2.432954753118111" decel="4.327270802426557" emergencyDecel="9.133303755667733" minGap="8.79889387752478" vClass="passenger" emissionClass="HBEFA4/PC_petrol_Euro-6ab" color="#3498DB" guiShape="passenger/sedan"/>
    <vType id="vtype-vehicle45" length="5.8481416112726485" mass="1597.0066231996361" accel="2.1" decel="2.9166750184191823" emergencyDecel="8.94364197549734" minGap="5.530371048788691" vClass="passenger" emissionClass="HBEFA4/PC_petrol_Euro-4" color="#3498DB" guiShape="passenger/sedan"/>
    <vType id="vtype-vehicle46" length="3.5093085858518447" mass="1182.2346368608055" accel="4.9623900415646505" decel="6.508504694662751" emergencyDecel="9.978285260213982" minGap="7.063722658333177" vClass="passenger" emissionClass="HBEFA4/PC_petrol_Euro-6ab" color="#3498DB" guiShape="passenger/sedan"/>
    <vType id="vtype-vehicle47" length="4.58969298249132" mass="1677.157234398828" accel="2.1" decel="4.574132561945025" emergencyDecel="10.114219519605408" minGap="7.775797866796106" vClass="passenger" emissionClass="HBEFA4/PC_petrol_Euro-6ab" color="#3498DB" guiShape="passenger/sedan"/>
    <vType id="vtype-vehicle48" length="4.052774354487899" mass="1288.889561221502" accel="3.071353108247299" decel="3.4125530804848436" emergencyDecel="9.299317269252354" minGap="6.450153847784239" vClass="passenger" emissionClass="HBEFA4/PC_petrol_Euro-5" color="#3498DB" guiShape="passenger/sedan"/>
    <vType id="vtype-vehicle49" length="3.828536943266922" mass="1570.371926188775" accel="2.1" decel="4.987213387571394" emergencyDecel="9.402420397104375" minGap="10.34754688358532" vClass="passenger" emissionClass="HBEFA4/PC_petrol_Euro-2" color="#3498DB" guiShape="passenger/sedan"/>
    <vType id="vtype-vehicle50" length="4.510090060135938" mass="1985.7542705408832" accel="3.419076478578458" decel="4.147911993629383" emergencyDecel="10.367555306298419" minGap="5.417602218636391" vClass="passenger" emissionClass="HBEFA4/PC_petrol_PreEuro_3WCat_1987-90" color="#3498DB" guiShape="passenger/sedan"/>
    <vType id="vtype-vehicle51" length="4.446986575548096" mass="1823.0798813263923" accel="2.245665208717232" decel="2.6606231021043207" emergencyDecel="11.344873338367506" minGap="3.6790160418879676" vClass="passenger" emissionClass="HBEFA4/PC_LPG_petrol_Euro-6_(LPG)" color="#3498DB" guiShape="passenger/sedan"/>
    <vType id="vtype-vehicle52" length="5.454924250910706" mass="1575.760612450503" accel="2.2708647993701954" decel="5.1334091274338" emergencyDecel="12.645467949520526" minGap="8.963434509036743" vClass="passenger" emissionClass="HBEFA4/PC_diesel_Euro-5" color="#3498DB" guiShape="passenger/sedan"/>
    <vType id="vtype-vehicle53" length="4.487647428559827" mass="1670.216682664397" accel="2.1" decel="3.845874871127499" emergencyDecel="9.773221275956033" minGap="7.983830362127316" vClass="passenger" emissionClass="HBEFA4/PC_LPG_petrol_Euro-5_(LPG)" color="#3498DB" guiShape="passenger/sedan"/>
    <vType id="vtype-vehicle54" length="4.533266315174231" mass="1721.072890637082" accel="5.554622881858727" decel="2.98587303594375" emergencyDecel="7.698397443882726" minGap="6.995757998411868" vClass="passenger" emissionClass="HBEFA4/PC_diesel_1986-1988" color="#3498DB" guiShape="passenger/sedan"/>
    <vType id="vtype-vehicle55" length="3.490603475090319" mass="1681.7549983209267" accel="3.9510968820061336" decel="3.9574473599508257" emergencyDecel="10.441374429828787" minGap="7.020727569586918" vClass="passenger" emissionClass="HBEFA4/PC_petrol_Euro-6ab" color="#3498DB" guiShape="passenger/sedan"/>
    <vType id="vtype-vehicle56" length="4.353794767844615" mass="1456.2424782886799" accel="6.1448674802853676" decel="4.424924537062179" emergencyDecel="9.361708939568969" minGap="5.686942645341654" vClass="passenger" emissionClass="HBEFA4/PC_diesel_Euro-6ab" color="#3498DB" guiShape="passenger/sedan"/>
    <vType id="vtype-vehicle57" length="4.30689778624984" mass="1962.0785906880344" accel="4.137061607665041" decel="4.753265571954959" emergencyDecel="10.257005666769963" minGap="6.952187213901126" vClass="passenger" emissionClass="HBEFA4/PC_petrol_Euro-4" color="#3498DB" guiShape="passenger/sedan"/>
    <vType id="vtype-vehicle58" length="4.139226898551632" mass="1620.9304690068277" accel="3.743143631067095" decel="3.6699062279059795" emergencyDecel="9.668000934519174" minGap="5.79938775590191" vClass="passenger" emissionClass="HBEFA4/PC_diesel_Euro-4" color="#3498DB" guiShape="passenger/sedan"/>
    <vType id="vtype-vehicle59" length="4.899031064824696" mass="1422.3261460448955" accel="2.287774449256796" decel="4.024683499484499" emergencyDecel="10.39183719606146" minGap="4.142851310248279" vClass="passenger" emissionClass="HBEFA4/PC_diesel_Euro-4" color="#3498DB" guiShape="passenger/sedan"/>
    <vType id="vtype-vehicle60" length="5.229555176884034" mass="1903.6087928607421" accel="4.317747458097697" decel="3.2376806851299857" emergencyDecel="9.964663849360097" minGap="5.315632688288175" vClass="passenger" emissionClass="HBEFA4/PC_CNG_petrol_Euro-4_(CNG)" color="#3498DB" guiShape="passenger/sedan"/>
    <vType id="vtype-vehicle61" length="4.553461092126607" mass="1436.4556766481885" accel="3.5168994380321488" decel="3.342115534126184" emergencyDecel="9.030585254030967" minGap="5.893322978505178" vClass="passenger" emissionClass="HBEFA4/PC_PHEV_petrol_Euro-6d_(El)" color="#3498DB" guiShape="passenger/sedan"/>
    <vType id="vtype-vehicle62" length="2.930946838995776" mass="1624.3106589432132" accel="2.1" decel="4.081149278092528" emergencyDecel="8.538285678766451" minGap="8.375680315084299" vClass="passenger" emissionClass="HBEFA4/PC_petrol_Euro-4" color="#3498DB" guiShape="passenger/sedan"/>
    <vType id="vtype-vehicle63" length="2.5" mass="1341.6830127991661" accel="2.1" decel="4.734350483830513" emergencyDecel="10.533733097820152" minGap="6.1028734550084165" vClass="passenger" emissionClass="HBEFA4/PC_diesel_Euro-4" color="#3498DB" guiShape="passenger/sedan"/>
    <vType id="vtype-vehicle64" length="5.114539473508582" mass="1383.3102042410744" accel="4.251642097267382" decel="6.048923026703749" emergencyDecel="10.984157535939511" minGap="5.82779379586246" vClass="passenger" emissionClass="HBEFA4/PC_petrol_PreEuro_3WCat_1987-90" color="#3498DB" guiShape="passenger/sedan"/>
    <vType id="vtype-vehicle65" length="5.867212389857403" mass="1850.8333561004347" accel="5.002837034115047" decel="5.333113482764345" emergencyDecel="8.128095491194106" minGap="7.892942367168068" vClass="passenger" emissionClass="HBEFA4/PC_diesel_Euro-6ab" color="#3498DB" guiShape="passenger/sedan"/>
    <vType id="vtype-vehicle66" length="2.5" mass="1572.253294925534" accel="2.8120544557766416" decel="4.329990140171564" emergencyDecel="9.263669717552327" minGap="5.835371309702365" vClass="passenger" emissionClass="HBEFA4/PC_diesel_Euro-6ab" color="#3498DB" guiShape="passenger/sedan"/>
    <vType id="vtype-vehicle67" length="6.185548630736309" mass="1697.5299386274921" accel="2.3560749675828214" decel="2" emergencyDecel="11.298181435396401" minGap="5.193916600198166" vClass="passenger" emissionClass="HBEFA4/PC_petrol_Euro-6ab" color="#3498DB" guiShape="passenger/sedan"/>
    <vType id="vtype-vehicle68" length="6.192121022944665" mass="1401.9810306332702" accel="2.1" decel="5.199985067300901" emergencyDecel="10.685608756930552" minGap="8.309129928690682" vClass="passenger" emissionClass="HBEFA4/PC_PHEV_petrol_Euro-6d_(El)" color="#3498DB" guiShape="passenger/sedan"/>
    <vType id="vtype-vehicle69" length="3.2103869150584874" mass="1743.787718574988" accel="2.209238313612037" decel="3.050703461253031" emergencyDecel="10.04764041672394" minGap="6.355470670425188" vClass="passenger" emissionClass="HBEFA4/PC_petrol_PreEuro_3WCat_1987-90" color="#3498DB" guiShape="passenger/sedan"/>
    <vType id="vtype-vehicle70" length="3.863799347994634" mass="1823.5304140157714" accel="4.422320637208624" decel="5.435391359972123" emergencyDecel="10.517049433251596" minGap="6.031230930124441" vClass="passenger" emissionClass="HBEFA4/PC_petrol_Euro-2" color="#3498DB" guiShape="passenger/sedan"/>
    <vType id="vtype-vehicle71" length="6.386014189274874" mass="1798.2130324026855" accel="2.1" decel="3.957623636055899" emergencyDecel="9.93649900058488" minGap="8.083971811626128" vClass="passenger" emissionClass="HBEFA4/PC_diesel_Euro-6ab" color="#3498DB" guiShape="passenger/sedan"/>
    <vType id="vtype-vehicle72" length="4.107430964304775" mass="1804.0846861608086" accel="4.785494296666399" decel="3.609896036315474" emergencyDecel="9.145687327645684" minGap="3.957059119993335" vClass="passenger" emissionClass="HBEFA4/PC_diesel_Euro-5" color="#3498DB" guiShape="passenger/sedan"/>
    <vType id="vtype-vehicle73" length="3.6754173892235475" mass="1818.3977956889223" accel="4.178854813324003" decel="3.459543888708424" emergencyDecel="10.999474090009446" minGap="4.370350421622326" vClass="passenger" emissionClass="HBEFA4/PC_diesel_Euro-4" color="#3498DB" guiShape="passenger/sedan"/>
    <vType id="vtype-vehicle74" length="3.8605037369167547" mass="1725.8560182818696" accel="2.1" decel="2.99725813571661" emergencyDecel="10.238428547233816" minGap="12.148099818239077" vClass="passenger" emissionClass="HBEFA4/PC_diesel_Euro-5" color="#3498DB" guiShape="passenger/sedan"/>
    <vType id="vtype-vehicle75" length="4.632940548620995" mass="1791.6193162842887" accel="2.1" decel="3.138314789807122" emergencyDecel="8.949634657546172" minGap="8.546021420940455" vClass="passenger" emissionClass="HBEFA4/PC_LPG_petrol_Euro-5_(LPG)" color="#3498DB" guiShape="passenger/sedan"/>
    <vType id="vtype-vehicle76" length="4.340192461234094" mass="1659.5162077408518" accel="2.17930394704128" decel="4.864728486262071" emergencyDecel="10.707033607212164" minGap="5.235912927415408" vClass="passenger" emissionClass="HBEFA4/PC_petrol_Euro-6ab" color="#3498DB" guiShape="passenger/sedan"/>
    <vType id="vtype-vehicle77" length="5.403091256468168" mass="1361.8876290009332" accel="2.1" decel="4.369542858654406" emergencyDecel="9.375130437771936" minGap="7.803277186119753" vClass="passenger" emissionClass="HBEFA4/PC_petrol_Euro-6ab" color="#3498DB" guiShape="passenger/sedan"/>
    <vType id="vtype-vehicle78" length="5.346009453351938" mass="1580.5783212458807" accel="4.785902972077975" decel="3.235336816327937" emergencyDecel="10.041575798062086" minGap="7.399387575843307" vClass="passenger" emissionClass="HBEFA4/PC_petrol_PreEuro_3WCat_1987-90" color="#3498DB" guiShape="passenger/sedan"/>
    <vType id="vtype-vehicle79" length="4.721479774050963" mass="1970.022196468108" accel="4.071538654167163" decel="3.8138672755574614" emergencyDecel="8.588660607842003" minGap="8.00003775805113" vClass="passenger" emissionClass="HBEFA4/PC_petrol_Euro-4" color="#3498DB" guiShape="passenger/sedan"/>
    <vType id="vtype-vehicle80" length="5.541359084938746" mass="1842.8043798021802" accel="3.1977276426742414" decel="3.830947142078722" emergencyDecel="9.173487067325228" minGap="4.5724035201848094" vClass="passenger" emissionClass="HBEFA4/PC_petrol_Euro-6ab" color="#3498DB" guiShape="passenger/sedan"/>
    <vType id="vtype-vehicle81" length="4.550897446361249" mass="1462.864851440834" accel="5.911670676110177" decel="4.788928302969212" emergencyDecel="9.990635832203177" minGap="4.815048642007902" vClass="passenger" emissionClass="HBEFA4/PC_diesel_Euro-5" color="#3498DB" guiShape="passenger/sedan"/>
    <vType id="vtype-vehicle82" length="3.9935151616916773" mass="1720.8338492102466" accel="2.3306685328959476" decel="5.400444939193191" emergencyDecel="10.191838106792556" minGap="9.89498663359078" vClass="passenger" emissionClass="HBEFA4/PC_diesel_Euro-5" color="#3498DB" guiShape="passenger/sedan"/>
    <vType id="vtype-vehicle83" length="3.637770898389126" mass="1730.4907716947923" accel="2.8225013529567464" decel="5.133677243496312" emergencyDecel="10.134094885032116" minGap="10.299542616159815" vClass="passenger" emissionClass="HBEFA4/PC_petrol_Euro-6ab" color="#3498DB" guiShape="passenger/sedan"/>
    <vType id="vtype-vehicle84" length="6.425037769586466" mass="1749.347991221377" accel="2.1" decel="5.4031115368736575" emergencyDecel="10.276175532452976" minGap="6.769551137595854" vClass="passenger" emissionClass="HBEFA4/PC_diesel_Euro-4" color="#3498DB" guiShape="passenger/sedan"/>
    <vType id="vtype-vehicle85" length="5.874053147786881" mass="1481.2038122090462" accel="5.175087296918758" decel="2" emergencyDecel="9.263553439571997" minGap="6.909295137569052" vClass="passenger" emissionClass="HBEFA4/PC_petrol_Euro-5" color="#3498DB" guiShape="passenger/sedan"/>
    <vType id="vtype-vehicle86" length="3.2778084610294176" mass="1626.0427628381844" accel="3.8734876683519004" decel="3.904129622522118" emergencyDecel="9.083164776566925" minGap="6.535968345707286" vClass="passenger" emissionClass="HBEFA4/PC_petrol_Euro-4" color="#3498DB" guiShape="passenger/sedan"/>
    <vType id="vtype-vehicle87" length="5.154802286031538" mass="1827.0945456150337" accel="2.1" decel="3.357020297013272" emergencyDecel="10.649353795854157" minGap="10.403511753120812" vClass="passenger" emissionClass="HBEFA4/PC_diesel_Euro-5" color="#3498DB" guiShape="passenger/sedan"/>
    <vType id="vtype-vehicle88" length="4.247032585280929" mass="1571.5799574208788" accel="2.1" decel="3.3101624997964185" emergencyDecel="9.879119077665907" minGap="7.324438198765972" vClass="passenger" emissionClass="HBEFA4/PC_diesel_Euro-6ab" color="#3498DB" guiShape="passenger/sedan"/>
    <vType id="vtype-vehicle89" length="5.139089649834447" mass="1370.2632015623299" accel="5.419578312155522" decel="4.952069192598006" emergencyDecel="9.796280872670527" minGap="5.358025830536603" vClass="passenger" emissionClass="HBEFA4/PC_diesel_Euro-5" color="#3498DB" guiShape="passenger/sedan"/>
    <vType id="vtype-vehicle90" length="3.8250830126145616" mass="1855.3748857125327" accel="2.1" decel="4.096570607479075" emergencyDecel="12.68202454137667" minGap="7.598964437909659" vClass="passenger" emissionClass="HBEFA4/PC_petrol_Euro-6ab" color="#3498DB" guiShape="passenger/sedan"/>
    <vType id="vtype-vehicle91" length="4.048309675030363" mass="1788.9350035694752" accel="3.6096071100512543" decel="2.3259617178197667" emergencyDecel="10.539926365421962" minGap="6.877650934249499" vClass="passenger" emissionClass="HBEFA4/PC_diesel_Euro-6ab" color="#3498DB" guiShape="passenger/sedan"/>
    <vType id="vtype-vehicle92" length="5.848832273104578" mass="1568.1422875830651" accel="3.7222290887499616" decel="4.902802018067475" emergencyDecel="10.30889793336597" minGap="8.73303957471015" vClass="passenger" emissionClass="HBEFA4/PC_petrol_Euro-3" color="#3498DB" guiShape="passenger/sedan"/>
    <vType id="vtype-vehicle93" length="5.411309513364076" mass="2021.788827018349" accel="3.2721291700167483" decel="4.020910053946575" emergencyDecel="11.214950524558896" minGap="4.969518091571796" vClass="passenger" emissionClass="HBEFA4/PC_petrol_PreEuro_3WCat_1987-90" color="#3498DB" guiShape="passenger/sedan"/>
    <vType id="vtype-vehicle94" length="4.959215918546118" mass="1712.1426148060846" accel="4.007124557888532" decel="3.712864500959997" emergencyDecel="10.679727999145094" minGap="4.420253032366896" vClass="passenger" emissionClass="HBEFA4/PC_petrol_Euro-6ab" color="#3498DB" guiShape="passenger/sedan"/>
    <vType id="vtype-vehicle95" length="3.843808350717717" mass="1517.5053608824549" accel="2.5792580369191747" decel="4.027940603061307" emergencyDecel="11.907368281541515" minGap="9.35882371402675" vClass="passenger" emissionClass="HBEFA4/PC_diesel_Euro-4" color="#3498DB" guiShape="passenger/sedan"/>
    <vType id="vtype-vehicle96" length="4.84014993284194" mass="1481.0886276425306" accel="3.598987045607362" decel="4.938031406518828" emergencyDecel="11.776960104964468" minGap="5.778983431298997" vClass="passenger" emissionClass="HBEFA4/PC_petrol_Euro-4" color="#3498DB" guiShape="passenger/sedan"/>
    <vType id="vtype-vehicle97" length="6.265623781328285" mass="1794.0500563970513" accel="4.426777830647238" decel="4.936440020741577" emergencyDecel="9.98473163718594" minGap="9.503222827600812" vClass="passenger" emissionClass="HBEFA4/PC_diesel_Euro-5" color="#3498DB" guiShape="passenger/sedan"/>
    <vType id="vtype-vehicle98" length="5.3352663884298535" mass="1381.512315523386" accel="6.878219007874746" decel="4.149388458774003" emergencyDecel="11.052238029237492" minGap="8.872976863983194" vClass="passenger" emissionClass="HBEFA4/PC_diesel_Euro-5" color="#3498DB" guiShape="passenger/sedan"/>