<?xml version="1.0" ?>
<routes>
    <vType id="vtype-vehicle143" length="4.243997964486391" mass="1863.1332629658145" accel="4.923932377165398" decel="2.7686350118297063" emergencyDecel="8.406855007733057" minGap="3.7593922319735853" vClass="passenger" emissionClass="HBEFA4/PC_petrol_Euro-3" color="#FFFF00" guiShape="passenger/sedan"/>
    <vType id="vtype-vehicle187" length="6.547764327266487" mass="1599.7339575229457" accel="3.484049949080411" decel="3.8752486447276544" emergencyDecel="6.451036879856292" minGap="5.752987709003803" vClass="passenger" emissionClass="HBEFA4/PC_petrol_Euro-2" color="#FFFF00" guiShape="passenger/sedan"/>
    <vType id="vtype-vehicle459" length="4.169192440622071" mass="2095.3058224226074" accel="4.55734640985703" decel="2.9539836941690027" emergencyDecel="5.392515235914869" minGap="8.389258188094699" vClass="passenger" emissionClass="HBEFA4/PC_diesel_Euro-4_(DPF)" color="#00BFFF" guiShape="passenger/sedan"/>
    <vType id="vtype-vehicle367" length="6.086417168687891" mass="1504.9890763025614" accel="2.9915458602340608" decel="4.5613012906267745" emergencyDecel="5.542456963238478" minGap="5.588410035082963" vClass="passenger" emissionClass="HBEFA4/PC_diesel_Euro-4_(DPF)" color="#00BFFF" guiShape="passenger/sedan"/>
    <vType id="vtype-vehicle849" length="5.239252370980519" mass="2856.7079350190015" accel="2.1" decel="3.682790667550681" emergencyDecel="7.134180488501691" minGap="5.644168589789691" vClass="delivery" emissionClass="HBEFA4/LCV_diesel_N1-II_Euro-2" color="#DC143C" guiShape="delivery"/>
    <vType id="vtype-vehicle549" length="5.464373740233759" mass="1805.7802183540202" accel="4.016112661940826" decel="3.18660582227791" emergencyDecel="5.472962097002867" minGap="4.817133119204655" vClass="passenger" emissionClass="HBEFA4/PC_petrol_Euro-6ab" color="#FF4500" guiShape="passenger/hatchback"/>
    <vType id="vtype-vehicle304" length="4.675132181434665" mass="1918.9547480226668" accel="2.1" decel="2.150943478849827" emergencyDecel="4.9613696610173355" minGap="10.011670208483642" vClass="passenger" emissionClass="HBEFA4/PC_diesel_Euro-2" color="#00BFFF" guiShape="passenger/sedan"/>
    <vType id="vtype-vehicle290" length="4.962664056380245" mass="1774.0433334595978" accel="4.094346501460543" decel="2.883016056254498" emergencyDecel="5.641768617468996" minGap="6.11929849782482" vClass="passenger" emissionClass="HBEFA4/PC_diesel_Euro-6ab" color="#00BFFF" guiShape="passenger/sedan"/>
    <vType id="vtype-vehicle418" length="5.9121285281586555" mass="1859.129373788478" accel="3.7908371623986925" decel="3.908768032402101" emergencyDecel="6.142819804882233" minGap="4.608303417521965" vClass="passenger" emissionClass="HBEFA4/PC_diesel_Euro-4_(DPF)" color="#00BFFF" guiShape="passenger/sedan"/>
    <vType id="vtype-vehicle122" length="4.5016366349082295" mass="1634.9471116236975" accel="4.263473247716235" decel="3.844543919952617" emergencyDecel="5.173895077397248" minGap="11.203330231247925" vClass="passenger" emissionClass="HBEFA4/PC_petrol_Euro-4" color="#FFFF00" guiShape="passenger/sedan"/>
    <vType id="vtype-vehicle120" length="5.45176580332207" mass="1502.9136359968275" accel="3.74212300348425" decel="3.029910547484105" emergencyDecel="6.501961145561648" minGap="10.363551807360516" vClass="passenger" emissionClass="HBEFA4/PC_petrol_Euro-2" color="#FFFF00" guiShape="passenger/sedan"/>
    <vType id="vtype-vehicle326" length="3.992101962390353" mass="1634.8148543780017" accel="2.1" decel="2.0271101453653726" emergencyDecel="6.199352733520841" minGap="5.784343708321665" vClass="passenger" emissionClass="HBEFA4/PC_diesel_Euro-6ab" color="#00BFFF" guiShape="passenger/sedan"/>
    <vType id="vtype-vehicle107" length="3.890030559059688" mass="1474.3050898802762" accel="2.380850938018505" decel="2.1658874713697207" emergencyDecel="5.370794094583474" minGap="7.8083694797176175" vClass="passenger" emissionClass="HBEFA4/PC_petrol_Euro-5" color="#FFFF00" guiShape="passenger/sedan"/>
    <vType id="vtype-vehicle450" length="4.545088173241368" mass="1639.4145100916296" accel="2.1" decel="3.639434485794676" emergencyDecel="7.55107645681629" minGap="6.815364947460644" vClass="passenger" emissionClass="HBEFA4/PC_diesel_Euro-4_(DPF)" color="#00BFFF" guiShape="passenger/sedan"/>
    <vType id="vtype-vehicle725" length="5.579427679499799" mass="2090.108751923569" accel="3.2392219118730323" decel="3.3237306587882443" emergencyDecel="6.119595719190449" minGap="4.881265967553864" vClass="passenger" emissionClass="HBEFA4/PC_diesel_Euro-5" color="#8A2BE2" guiShape="passenger/hatchback"/>
    <vType id="vtype-vehicle609" length="5.624517040011153" mass="2300.8032564940913" accel="2.1" decel="2.0755025729302976" emergencyDecel="5.258334610226123" minGap="8.521273959013689" vClass="passenger" emissionClass="HBEFA4/PC_diesel_Euro-4_(DPF)" color="#8A2BE2" guiShape="passenger/hatchback"/>
    <vType id="vtype-vehicle838" length="7.023518084931737" mass="3092.4184198509624" accel="2.1" decel="3.8994621673238288" emergencyDecel="6.820268514809283" minGap="4.578940829074941" vClass="delivery" emissionClass="HBEFA4/LCV_diesel_N1-II_Euro-5" color="#DC143C" guiShape="delivery"/>
    <vType id="vtype-vehicle749" length="5.305355499857906" mass="2193.119583848061" accel="4.1938782372776" decel="4.203699266284068" emergencyDecel="5.153868082619365" minGap="7.9117375978003555" vClass="passenger" emissionClass="HBEFA4/PC_diesel_Euro-6ab" color="#8A2BE2" guiShape="passenger/hatchback"/>
    <vType id="vtype-vehicle413" length="4.642741245283997" mass="1612.1215826298169" accel="5.656184960579466" decel="2.3486397344194203" emergencyDecel="5.15076283624182" minGap="7.2201484751195615" vClass="passenger" emissionClass="HBEFA4/PC_diesel_Euro-3" color="#00BFFF" guiShape="passenger/sedan"/>
    <vType id="vtype-vehicle237" length="4.255719112316138" mass="1929.1867908281308" accel="2.1" decel="1.6766296814066597" emergencyDecel="5.859106259125802" minGap="6.347567816360695" vClass="passenger" emissionClass="HBEFA4/PC_diesel_Euro-5" color="#00BFFF" guiShape="passenger/sedan"/>
    <vType id="vtype-vehicle273" length="4.761400571416136" mass="1479.5198958172273" accel="2.1" decel="3.4518656772482226" emergencyDecel="6.5692158812312" minGap="6.5574405472640755" vClass="passenger" emissionClass="HBEFA4/PC_diesel_Euro-5" color="#00BFFF" guiShape="passenger/sedan"/>
    <vType id="vtype-vehicle60" length="3.999622082782781" mass="1819.135719788193" accel="2.6736624810442753" decel="3.50716472385671" emergencyDecel="6.000503176128014" minGap="5.45831587089768" vClass="passenger" emissionClass="HBEFA4/PC_petrol_PreEuro_3WCat_1987-90" color="#FFFF00" guiShape="passenger/sedan"/>
    <vType id="vtype-vehicle392" length="5.503988136271064" mass="1704.079798380857" accel="4.67291961298889" decel="2.7397544050648093" emergencyDecel="5.174270409493313" minGap="6.219364056595202" vClass="passenger" emissionClass="HBEFA4/PC_diesel_Euro-6ab" color="#00BFFF" guiShape="passenger/sedan"/>
    <vType id="vtype-vehicle699" length="6.781548849993582" mass="2227.2617057868074" accel="2.9849222998641114" decel="3.017088644627658" emergencyDecel="5.763852203190666" minGap="5.40321660547111" vClass="passenger" emissionClass="HBEFA4/PC_diesel_Euro-6ab" color="#8A2BE2" guiShape="passenger/hatchback"/>
    <vType id="vtype-vehicle154" length="3.9892585689559974" mass="1477.3353796397246" accel="2.1" decel="0.9947494830217045" emergencyDecel="6.715020147030223" minGap="9.373362386227056" vClass="passenger" emissionClass="HBEFA4/PC_petrol_Euro-4" color="#FFFF00" guiShape="passenger/sedan"/>
    <vType id="vtype-vehicle115" length="4.495155301547022" mass="1290.5584199459518" accel="3.943762107957233" decel="1.1189820211897865" emergencyDecel="7.07611215179051" minGap="6.882914930618498" vClass="passenger" emissionClass="HBEFA4/PC_petrol_Euro-6ab" color="#FFFF00" guiShape="passenger/sedan"/>
    <vType id="vtype-vehicle9" length="5.64350739730215" mass="1966.099124747244" accel="3.540416573677004" decel="3.1080214021903876" emergencyDecel="5.785406723637336" minGap="6.5482540827677695" vClass="passenger" emissionClass="HBEFA4/PC_petrol_Euro-3" color="#FFFF00" guiShape="passenger/sedan"/>
    <vType id="vtype-vehicle611" length="5.715894827908721" mass="1886.7176171385886" accel="2.1" decel="2.1045054948630946" emergencyDecel="4.198541543739883" minGap="5.87593320314913" vClass="passenger" emissionClass="HBEFA4/PC_diesel_Euro-6ab" color="#8A2BE2" guiShape="passenger/hatchback"/>
    <vType id="vtype-vehicle751" length="4.448845629005496" mass="2079.7186161954473" accel="4.890882854980816" decel="2.3159394563197218" emergencyDecel="6.022128104052314" minGap="13.902994226330065" vClass="passenger" emissionClass="HBEFA4/PC_diesel_Euro-4_(DPF)" color="#8A2BE2" guiShape="passenger/hatchback"/>
    <vType id="vtype-vehicle26" length="3.981258020983407" mass="1768.029540237352" accel="2.1" decel="4.688895809769781" emergencyDecel="7.2652743023333395" minGap="6.53796717628967" vClass="passenger" emissionClass="HBEFA4/PC_petrol_PreEuro_3WCat_1987-90" color="#FFFF00" guiShape="passenger/sedan"/>
    <vType id="vtype-vehicle98" length="5.637183345640164" mass="1454.6149049757412" accel="3.0933500442573862" decel="4.418806844401523" emergencyDecel="5.495822276344217" minGap="4.161593845539165" vClass="passenger" emissionClass="HBEFA4/PC_petrol_PreEuro_3WCat_1987-90" color="#FFFF00" guiShape="passenger/sedan"/>
    <vType id="vtype-vehicle767" length="7.117947334063301" mass="2023.715705704976" accel="2.1" decel="2.3266781983429343" emergencyDecel="5.818699277224775" minGap="6.135749665417528" vClass="passenger" emissionClass="HBEFA4/PC_diesel_Euro-6ab" color="#8A2BE2" guiShape="passenger/hatchback"/>
    <vType id="vtype-vehicle535" length="5.63300689420381" mass="2533.7696962059595" accel="6.3253014888644845" decel="1.3573852323394175" emergencyDecel="4.002989577224749" minGap="7.769148687917751" vClass="passenger" emissionClass="HBEFA4/PC_petrol_PreEuro_3WCat_1987-90" color="#FF4500" guiShape="passenger/hatchback"/>
    <vType id="vtype-vehicle33" length="4.206827490273092" mass="1656.1044305970563" accel="5.709828726418638" decel="0.8269531990028276" emergencyDecel="7.411746700452082" minGap="6.145027887726298" vClass="passenger" emissionClass="HBEFA4/PC_petrol_Euro-5" color="#FFFF00" guiShape="passenger/sedan"/>
    <vType id="vtype-vehicle485" length="4.54560964721254" mass="1860.1916629405346" accel="4.976909911323846" decel="3.08199922278335" emergencyDecel="4.719177649853132" minGap="3.83618700789911" vClass="passenger" emissionClass="HBEFA4/PC_diesel_Euro-6ab" color="#00BFFF" guiShape="passenger/sedan"/>
    <vType id="vtype-vehicle72" length="5.128871370854051" mass="1069.7558611278287" accel="3.9024657979683868" decel="2.8427782603745437" emergencyDecel="3.998947381967835" minGap="4.700871479388031" vClass="passenger" emissionClass="HBEFA4/PC_petrol_Euro-2" color="#FFFF00" guiShape="passenger/sedan"/>
    <vType id="vtype-vehicle604" length="6.385702073627935" mass="1686.6566480689419" accel="5.425239341269426" decel="2.116345353735807" emergencyDecel="7.076574093824403" minGap="4.473228806280444" vClass="passenger" emissionClass="HBEFA4/PC_diesel_Euro-6ab" color="#8A2BE2" guiShape="passenger/hatchback"/>
    <vType id="vtype-vehicle761" length="5.304607747709843" mass="2099.4663762700397" accel="2.1" decel="3.4388222151591243" emergencyDecel="7.9253173482777255" minGap="10.1685521054381" vClass="passenger" emissionClass="HBEFA4/PC_diesel_Euro-4_(DPF)" color="#8A2BE2" guiShape="passenger/hatchback"/>
    <vType id="vtype-vehicle502" length="5.365603946184095" mass="1578.603865322011" accel="5.091713696328735" decel="3.6023940054709107" emergencyDecel="4.356044496603886" minGap="6.6147232117548" vClass="passenger" emissionClass="HBEFA4/PC_diesel_Euro-3" color="#00BFFF" guiShape="passenger/sedan"/>
    <vType id="vtype-vehicle311" length="4.150125237545186" mass="1576.6790299491981" accel="3.14492337014049" decel="2.1061074140006926" emergencyDecel="5.276828219284316" minGap="8.082815070979205" vClass="passenger" emissionClass="HBEFA4/PC_diesel_Euro-4_(DPF)" color="#00BFFF" guiShape="passenger/sedan"/>
    <vType id="vtype-vehicle874" length="4.99076626895845" mass="2915.1515148443077" accel="3.910820843687871" decel="2.9046806987101492" emergencyDecel="6.330136697317466" minGap="8.7475066905865" vClass="delivery" emissionClass="HBEFA4/LCV_diesel_N1-II_convlt_1986" color="#DC143C" guiShape="delivery"/>
    <vType id="vtype-vehicle458" length="4.12367565135706" mass="1604.9671994638845" accel="3.5091064275772688" decel="2.124145524900958" emergencyDecel="4.691985504577872" minGap="2.724356666357992" vClass="passenger" emissionClass="HBEFA4/PC_diesel_Euro-4_(DPF)" color="#00BFFF" guiShape="passenger/sedan"/>
    <vType id="vtype-vehicle287" length="5.497317122847235" mass="1395.4656517989097" accel="7.027258227785666" decel="2.9834792541049038" emergencyDecel="4.8555050714722015" minGap="7.180687651582199" vClass="passenger" emissionClass="HBEFA4/PC_diesel_Euro-6ab" color="#00BFFF" guiShape="passenger/sedan"/>
    <vType id="vtype-vehicle735" length="6.04528082516239" mass="2025.9463718115114" accel="4.067923576785349" decel="2.769627689285839" emergencyDecel="7.921452360402727" minGap="4.700632291872616" vClass="passenger" emissionClass="HBEFA4/PC_diesel_Euro-6ab" color="#8A2BE2" guiShape="passenger/hatchback"/>
    <vType id="vtype-vehicle726" length="5.806439827567926" mass="1876.5696392120406" accel="4.899608019278788" decel="3.424472920666347" emergencyDecel="5.147949803012093" minGap="7.702103007177814" vClass="passenger" emissionClass="HBEFA4/PC_diesel_Euro-5" color="#8A2BE2" guiShape="passenger/hatchback"/>
    <vType id="vtype-vehicle851" length="6.34904570186216" mass="3166.8376610370074" accel="3.448788215976374" decel="3.494650492179346" emergencyDecel="7.099976160179846" minGap="5.265430382694019" vClass="delivery" emissionClass="HBEFA4/LCV_diesel_N1-II_Euro-4" color="#DC143C" guiShape="delivery"/>
    <vType id="vtype-vehicle753" length="5.34575476964366" mass="2332.5976361410067" accel="3.440361647456807" decel="1.6492840457799904" emergencyDecel="3.740987694981152" minGap="7.539869162766836" vClass="passenger" emissionClass="HBEFA4/PC_diesel_Euro-5" color="#8A2BE2" guiShape="passenger/hatchback"/>
    <vType id="vtype-vehicle703" length="5.246485721931578" mass="2082.5826095567395" accel="7.835790858114726" decel="3.959602047708514" emergencyDecel="6.196686399929264" minGap="7.832122089600274" vClass="passenger" emissionClass="HBEFA4/PC_diesel_Euro-6ab" color="#8A2BE2" guiShape="passenger/hatchback"/>
    <vType id="vtype-vehicle520" length="4.895944987805578" mass="1569.5070974510527" accel="2.8989440446507944" decel="2.305852939540029" emergencyDecel="7.348160995913865" minGap="6.347669806352297" vClass="passenger" emissionClass="HBEFA4/PC_diesel_1986-1988" color="#00BFFF" guiShape="passenger/sedan"/>
    <vType id="vtype-vehicle431" length="4.802383723615021" mass="1198.919510693081" accel="5.489285611145135" decel="3.335941371284668" emergencyDecel="5.692342730093477" minGap="2.100298329507078" vClass="passenger" emissionClass="HBEFA4/PC_diesel_Euro-5" color="#00BFFF" guiShape="passenger/sedan"/>
    <vType id="vtype-vehicle682" length="4.628571625088458" mass="1995.2179531733482" accel="5.690063956424071" decel="1.5544582461081258" emergencyDecel="5.32919347199579" minGap="7.424021378452544" vClass="passenger" emissionClass="HBEFA4/PC_diesel_1986-1988" color="#8A2BE2" guiShape="passenger/hatchback"/>
    <vType id="vtype-vehicle894" length="4.087073534284236" mass="3116.854328146321" accel="3.886705829760335" decel="3.768950779867671" emergencyDecel="6.780541279738207" minGap="6.803443633348959" vClass="delivery" emissionClass="HBEFA4/LCV_diesel_N1-II_Euro-6ab" color="#DC143C" guiShape="delivery"/>
    <vType id="vtype-vehicle275" length="5.775464306345836" mass="1313.2180038428546" accel="3.481976753783579" decel="3.236878566379181" emergencyDecel="6.628947990384463" minGap="6.912243177296975" vClass="passenger" emissionClass="HBEFA4/PC_diesel_Euro-3" color="#00BFFF" guiShape="passenger/sedan"/>
    <vType id="vtype-vehicle356" length="7.873581009024788" mass="1130.8697092654434" accel="2.1" decel="2.1481217929185243" emergencyDecel="5.2529878552673965" minGap="3.879851788318754" vClass="passenger" emissionClass="HBEFA4/PC_diesel_Euro-6ab" color="#00BFFF" guiShape="passenger/sedan"/>
    <vType id="vtype-vehicle248" length="4.723377220381652" mass="1576.255910005421" accel="3.6311080720053837" decel="2.9242213913320776" emergencyDecel="6.211019548571352" minGap="4.058155530447479" vClass="passenger" emissionClass="HBEFA4/PC_diesel_Euro-5" color="#00BFFF" guiShape="passenger/sedan"/>
    <vType id="vtype-vehicle899" length="5.588740314107905" mass="2863.4263671865265" accel="3.568457348031596" decel="2.7163840451844905" emergencyDecel="8.059012441351985" minGap="6.286487904235565" vClass="delivery" emissionClass="HBEFA4/LCV_diesel_N1-II_Euro-6ab" color="#DC143C" guiShape="delivery"/>
    <vType id="vtype-vehicle348" length="3.9984998105894767" mass="1101.2635219338588" accel="2.1" decel="3.9619318472159093" emergencyDecel="5.933838733684726" minGap="5.712582682616445" vClass="passenger" emissionClass="HBEFA4/PC_diesel_Euro-6ab" color="#00BFFF" guiShape="passenger/sedan"/>
    <vType id="vtype-vehicle338" length="5.321218719606472" mass="1352.7234910019395" accel="2.1" decel="3.9727571222727183" emergencyDecel="5.3626023792600055" minGap="7.169538910992312" vClass="passenger" emissionClass="HBEFA4/PC_diesel_Euro-6ab" color="#00BFFF" guiShape="passenger/sedan"/>
    <vType id="vtype-vehicle373" length="5.852004431941431" mass="1667.3154458948216" accel="3.8913206341585482" decel="1.7926408974698522" emergencyDecel="4.432705616019417" minGap="6.374360367366627" vClass="passenger" emissionClass="HBEFA4/PC_diesel_Euro-5" color="#00BFFF" guiShape="passenger/sedan"/>
    <vType id="vtype-vehicle678" length="4.374758982705924" mass="1735.233834824514" accel="2.1" decel="4.224315786204991" emergencyDecel="6.03596398675464" minGap="8.526184717682888" vClass="passenger" emissionClass="HBEFA4/PC_diesel_Euro-5" color="#8A2BE2" guiShape="passenger/hatchback"/>
    <vType id="vtype-vehicle142" length="6.249720289218782" mass="1391.1809368686695" accel="3.5531926876356024" decel="2.654569276035514" emergencyDecel="3.45142240561383" minGap="7.578480528222356" vClass="passenger" emissionClass="HBEFA4/PC_petrol_Euro-3" color="#FFFF00" guiShape="passenger/sedan"/>
    <vType id="vtype-vehicle804" length="5.435805269459154" mass="3218.2897068315815" accel="2.1" decel="1.9686398748659875" emergencyDecel="7.553446054261194" minGap="4.649285956602542" vClass="delivery" emissionClass="HBEFA4/LCV_diesel_N1-II_Euro-4" color="#DC143C" guiShape="delivery"/>
    <vType id="vtype-vehicle359" length="2.4723013517792762" mass="1300.0042168958005" accel="4.53167055702732" decel="1.7729172903941777" emergencyDecel="5.984820018062119" minGap="4.859206718384119" vClass="passenger" emissionClass="HBEFA4/PC_diesel_Euro-4_(DPF)" color="#00BFFF" guiShape="passenger/sedan"/>
    <vType id="vtype-vehicle831" length="6.1660207753407095" mass="3221.0171384444834" accel="2.1" decel="3.303555632576346" emergencyDecel="6.267622735911246" minGap="7.549424260634617" vClass="delivery" emissionClass="HBEFA4/LCV_diesel_N1-II_Euro-6ab" color="#DC143C" guiShape="delivery"/>
    <vType id="vtype-vehicle598" length="4.976322784569782" mass="2172.804016361703" accel="5.475307249276006" decel="2.962970945566846" emergencyDecel="7.524237855742557" minGap="3.5738851710172193" vClass="passenger" emissionClass="HBEFA4/PC_diesel_Euro-6ab" color="#8A2BE2" guiShape="passenger/hatchback"/>
    <vType id="vtype-vehicle119" length="4.643616779961007" mass="1311.5688986882687" accel="2.1" decel="3.660719101473182" emergencyDecel="6.986063808586478" minGap="7.9942916322152175" vClass="passenger" emissionClass="HBEFA4/PC_petrol_Euro-4" color="#FFFF00" guiShape="passenger/sedan"/>
    <vType id="vtype-vehicle588" length="4.7634872043209855" mass="2204.331542720871" accel="2.1" decel="2.3685955518525237" emergencyDecel="6.830498019581517" minGap="6.826834776438237" vClass="passenger" emissionClass="HBEFA4/PC_diesel_Euro-3" color="#8A2BE2" guiShape="passenger/hatchback"/>
    <vType id="vtype-vehicle840" length="5.693615803733818" mass="2795.0266917576305" accel="4.277055480302198" decel="3.561486018515936" emergencyDecel="7.215318217376165" minGap="8.89427599244901" vClass="delivery" emissionClass="HBEFA4/LCV_diesel_N1-II_convlt_1986" color="#DC143C" guiShape="delivery"/>
    <vType id="vtype-vehicle680" length="4.471609165054026" mass="1928.625250005977" accel="3.4397389129666536" decel="2.1678434383659155" emergencyDecel="3.8434002180662805" minGap="7.049587935628164" vClass="passenger" emissionClass="HBEFA4/PC_diesel_Euro-5" color="#8A2BE2" guiShape="passenger/hatchback"/>
    <vType id="vtype-vehicle707" length="6.935339654700306" mass="2286.3251224509513" accel="7.295732030083904" decel="3.82401477390218" emergencyDecel="5.784554537920976" minGap="4.001472584183949" vClass="passenger" emissionClass="HBEFA4/PC_diesel_Euro-6ab" color="#8A2BE2" guiShape="passenger/hatchback"/>
    <vType id="vtype-vehicle108" length="5.424349916290588" mass="1771.36164561351" accel="3.166852178404841" decel="2.830343422697882" emergencyDecel="6.186321069391187" minGap="3.549475756602388" vClass="passenger" emissionClass="HBEFA4/PC_petrol_Euro-4" color="#FFFF00" guiShape="passenger/sedan"/>
    <vType id="vtype-vehicle620" length="5.186572384544721" mass="2433.22398739599" accel="3.0321655556915026" decel="2.79349157130476" emergencyDecel="7.559885157416308" minGap="2.8570201159039046" vClass="passenger" emissionClass="HBEFA4/PC_diesel_Euro-2" color="#8A2BE2" guiShape="passenger/hatchback"/>
    <vType id="vtype-vehicle488" length="6.355390173305561" mass="1764.9688312726234" accel="3.137790974368711" decel="3.0613192783579795" emergencyDecel="5.9986528467843145" minGap="5.719073745354956" vClass="passenger" emissionClass="HBEFA4/PC_diesel_Euro-6ab" color="#00BFFF" guiShape="passenger/sedan"/>
    <vType id="vtype-vehicle66" length="4.42170552751421" mass="1740.5251484241483" accel="4.833948983240756" decel="3.8154173161047558" emergencyDecel="6.065203766937379" minGap="7.017658448708769" vClass="passenger" emissionClass="HBEFA4/PC_petrol_Euro-3" color="#FFFF00" guiShape="passenger/sedan"/>
    <vType id="vtype-vehicle586" length="6.000081621503196" mass="2023.467410045635" accel="2.1" decel="2.373115666299918" emergencyDecel="5.22030927650819" minGap="6.8400855629816775" vClass="passenger" emissionClass="HBEFA4/PC_diesel_Euro-6ab" color="#8A2BE2" guiShape="passenger/hatchback"/>
    <vType id="vtype-vehicle382" length="4.029586992410165" mass="1310.9041696819684" accel="6.62149191568917" decel="2.2060883473313453" emergencyDecel="3.4067298857816755" minGap="7.6181337112821295" vClass="passenger" emissionClass="HBEFA4/PC_diesel_Euro-3" color="#00BFFF" guiShape="passenger/sedan"/>
    <vType id="vtype-vehicle591" length="5.085644393380536" mass="2314.775417739869" accel="2.1" decel="4.09946154370624" emergencyDecel="7.442679381209734" minGap="10.003704344007417" vClass="passenger" emissionClass="HBEFA4/PC_diesel_Euro-6ab" color="#8A2BE2" guiShape="passenger/hatchback"/>
    <vType id="vtype-vehicle16" length="5.084976195388916" mass="1541.9601844546405" accel="2.771361373930454" decel="3.458201082537217" emergencyDecel="6.830609087096333" minGap="8.195378428533804" vClass="passenger" emissionClass="HBEFA4/PC_petrol_Euro-6ab" color="#FFFF00" guiShape="passenger/sedan"/>
    <vType id="vtype-vehicle731" length="3.609671311525288" mass="2043.35333229239" accel="2.1" decel="1.7415437921357382" emergencyDecel="5.215337365031928" minGap="9.150334020805571" vClass="passenger" emissionClass="HBEFA4/PC_diesel_Euro-6ab" color="#8A2BE2" guiShape="passenger/hatchback"/>
    <vType id="vtype-vehicle714" length="5.51005241934518" mass="2166.791339825487" accel="2.1" decel="3.5424812915429467" emergencyDecel="6.108428004652856" minGap="4.954434240836214" vClass="passenger" emissionClass="HBEFA4/PC_diesel_Euro-6ab" color="#8A2BE2" guiShape="passenger/hatchback"/>
    <vType id="vtype-vehicle325" length="4.80759768608422" mass="1533.4241057700128" accel="2.1" decel="2.412850248618272" emergencyDecel="5.144101394629901" minGap="4.112050170512547" vClass="passenger" emissionClass="HBEFA4/PC_diesel_Euro-6ab" color="#00BFFF" guiShape="passenger/sedan"/>
    <vType id="vtype-vehicle687" length="5.094937297192538" mass="1723.4989285745075" accel="4.640935302002982" decel="2.2332467014836928" emergencyDecel="6.400102158917755" minGap="7.402349438988636" vClass="passenger" emissionClass="HBEFA4/PC_diesel_Euro-4_(DPF)" color="#8A2BE2" guiShape="passenger/hatchback"/>
    <vType id="vtype-vehicle770" length="4.451536158030802" mass="2030.0652012241476" accel="3.8091317912247185" decel="3.3022376511144764" emergencyDecel="6.1642039285074635" minGap="7.241687527680232" vClass="passenger" emissionClass="HBEFA4/PC_diesel_Euro-4_(DPF)" color="#8A2BE2" guiShape="passenger/hatchback"/>
    <vType id="vtype-vehicle19" length="4.55328221603932" mass="1616.3858348449069" accel="2.1" decel="3.5502304425301014" emergencyDecel="6.479701896859295" minGap="8.490118604497832" vClass="passenger" emissionClass="HBEFA4/PC_petrol_Euro-6ab" color="#FFFF00" guiShape="passenger/sedan"/>
    <vType id="vtype-vehicle907" length="5.370699216669007" mass="7344.648770008916" accel="2.6503631210570604" decel="0.5893260777090892" emergencyDecel="5.973885326431726" minGap="5.5436648881328825" vClass="delivery" emissionClass="HBEFA4/RT_le7.5t_Euro-VI_A-C" color="#FFFFFF" guiShape="delivery"/>
    <vType id="vtype-vehicle13" length="4.751937230504182" mass="1748.5153172139849" accel="3.4243365823405845" decel="0.2849960327858314" emergencyDecel="6.828781568478506" minGap="5.247429801312459" vClass="passenger" emissionClass="HBEFA4/PC_petrol_Euro-6ab" color="#FFFF00" guiShape="passenger/sedan"/>
    <vType id="vtype-vehicle528" length="4.960010023052772" mass="1498.198026394455" accel="2.1" decel="3.6401707823065976" emergencyDecel="5.682798997976881" minGap="6.2881028410337905" vClass="passenger" emissionClass="HBEFA4/PC_diesel_Euro-6ab" color="#00BFFF" guiShape="passenger/sedan"/>
    <vType id="vtype-vehicle204" length="3.6088854274351747" mass="1472.155007936645" accel="4.527385379663395" decel="3.5284599623080153" emergencyDecel="7.77616670765701" minGap="13.419874593548514" vClass="passenger" emissionClass="HBEFA4/PC_diesel_Euro-6ab" color="#00BFFF" guiShape="passenger/sedan"/>
    <vType id="vtype-vehicle486" length="5.0321627489204594" mass="1663.8887812143716" accel="2.1" decel="1.894039616432934" emergencyDecel="4.177531340619962" minGap="11.947174533157284" vClass="passenger" emissionClass="HBEFA4/PC_diesel_Euro-4_(DPF)" color="#00BFFF" guiShape="passenger/sedan"/>
    <vType id="vtype-vehicle391" length="6.591540724964294" mass="1251.5933783929577" accel="2.1" decel="2.44194947948305" emergencyDecel="4.957422511850912" minGap="5.685022812618179" vClass="passenger" emissionClass="HBEFA4/PC_diesel_Euro-4_(DPF)" color="#00BFFF" guiShape="passenger/sedan"/>
    <vType id="vtype-vehicle124" length="3.904391789042455" mass="1873.7984182674682" accel="3.2571175917605233" decel="3.054952409122946" emergencyDecel="5.90168030240484" minGap="9.099742155524062" vClass="passenger" emissionClass="HBEFA4/PC_petrol_Euro-2" color="#FFFF00" guiShape="passenger/sedan"/>
    <vType id="vtype-vehicle592" length="4.2882258738900925" mass="2372.4687162414416" accel="2.540864043397878" decel="3.464443629169786" emergencyDecel="5.642046587910562" minGap="5.453138307967425" vClass="passenger" emissionClass="HBEFA4/PC_diesel_Euro-4_(DPF)" color="#8A2BE2" guiShape="passenger/hatchback"/>
    <vType id="vtype-vehicle362" length="4.529047072588839" mass="1785.5735079461078" accel="4.5712665401407" decel="3.073678049801504" emergencyDecel="6.355365517594513" minGap="9.085845392038415" vClass="passenger" emissionClass="HBEFA4/PC_diesel_Euro-5" color="#00BFFF" guiShape="passenger/sedan"/>
    <vType id="vtype-vehicle584" length="4.574013178519311" mass="1722.4052414617863" accel="3.803770969792682" decel="0.8996983117896473" emergencyDecel="5.690219811866854" minGap="9.703211935620631" vClass="passenger" emissionClass="HBEFA4/PC_diesel_Euro-4_(DPF)" color="#8A2BE2" guiShape="passenger/hatchback"/>
    <vType id="vtype-vehicle212" length="4.630190204100791" mass="1472.028483711343" accel="2.3462667471321006" decel="2.4168406587476867" emergencyDecel="6.536416712039078" minGap="3.1148520146258556" vClass="passenger" emissionClass="HBEFA4/PC_diesel_Euro-6ab" color="#00BFFF" guiShape="passenger/sedan"/>
    <vType id="vtype-vehicle426" length="4.876349424950119" mass="1613.423069694603" accel="3.8118687431214315" decel="4.327800619502787" emergencyDecel="6.351530424261619" minGap="8.467270977620398" vClass="passenger" emissionClass="HBEFA4/PC_diesel_Euro-4_(DPF)" color="#00BFFF" guiShape="passenger/sedan"/>
    <vType id="vtype-vehicle643" length="4.833539094349989" mass="2319.5393730773135" accel="2.1" decel="2.5585654182614754" emergencyDecel="5.496024749068359" minGap="8.671151172699155" vClass="passenger" emissionClass="HBEFA4/PC_diesel_Euro-2" color="#8A2BE2" guiShape="passenger/hatchback"/>
    <vType id="vtype-vehicle795" length="3.56272117327196" mass="3022.945632466834" accel="4.37234889493384" decel="3.103883837894345" emergencyDecel="5.365115748356775" minGap="9.616294210363172" vClass="delivery" emissionClass="HBEFA4/LCV_diesel_N1-II_Euro-6ab" color="#DC143C" guiShape="delivery"/>