<?xml version="1.0" ?>
<routes>
    <vType id="vtype-vehicle70" length="5.11764196588513" mass="1863.9815469103394" accel="2.1" decel="2.839297197892554" emergencyDecel="4.130814504296205" minGap="10.437496792158669" color="#FFFF00" guiShape="passenger/sedan"/>
    <vType id="vtype-vehicle86" length="5.748375537396427" mass="1640.6029460177863" accel="2.1" decel="3.148711625178216" emergencyDecel="7.416772996462731" minGap="7.9068224765417385" color="#FFFF00" guiShape="passenger/sedan"/>
    <vType id="vtype-vehicle176" length="4.643138659047747" mass="1406.4286710241126" accel="4.702301453789012" decel="3.8953960959510376" emergencyDecel="6.03240052680515" minGap="5.713355169600492" color="#00BFFF" guiShape="passenger/sedan"/>
    <vType id="vtype-vehicle39" length="3.67416502272741" mass="1560.184990897755" accel="2.1" decel="3.1679535047977647" emergencyDecel="5.964907061060635" minGap="7.840742197947224" color="#FFFF00" guiShape="passenger/sedan"/>
    <vType id="vtype-vehicle68" length="4.672442904165795" mass="1668.5960349528762" accel="4.1024178111223755" decel="2.9325833028922994" emergencyDecel="5.6257331281212535" minGap="6.542890951397668" color="#FFFF00" guiShape="passenger/sedan"/>
    <vType id="vtype-vehicle7" length="4.333744060776777" mass="1579.9707145216291" accel="2.1" decel="1.4238092240182691" emergencyDecel="6.5543634732584355" minGap="7.168236176633301" color="#FFFF00" guiShape="passenger/sedan"/>
    <vType id="vtype-vehicle389" length="5.518969734588678" mass="2340.9291871608993" accel="3.992589707198773" decel="2.53945191184751" emergencyDecel="5.960716536340776" minGap="1.5144870046400154" color="#8A2BE2" guiShape="passenger/hatchback"/>
    <vType id="vtype-vehicle410" length="4.696320449671328" mass="1808.068536808149" accel="6.6187296626990655" decel="3.800748573654328" emergencyDecel="6.274976290479599" minGap="4.969368443620201" color="#8A2BE2" guiShape="passenger/hatchback"/>
    <vType id="vtype-vehicle298" length="5.203433977692622" mass="2212.4993247915945" accel="5.0761550877067" decel="3.9781193125180834" emergencyDecel="6.748557090390091" minGap="5.925643771857963" color="#FF4500" guiShape="passenger/hatchback"/>
    <vType id="vtype-vehicle185" length="3.120618621098059" mass="1320.8596871236987" accel="5.943042732877704" decel="2.109599776062999" emergencyDecel="6.501222314853267" minGap="6.7927356043897404" color="#00BFFF" guiShape="passenger/sedan"/>
    <vType id="vtype-vehicle457" length="5.862517196863377" mass="2027.9438723299058" accel="2.9966826080673186" decel="3.595843341946885" emergencyDecel="7.36816802958909" minGap="3.2432590905364025" color="#DC143C" guiShape="delivery"/>
    <vType id="vtype-vehicle243" length="2.739756748683731" mass="1521.2508552977092" accel="2.1" decel="2.5428540315179693" emergencyDecel="5.1227134867061705" minGap="7.619992908022076" color="#00BFFF" guiShape="passenger/sedan"/>
    <vType id="vtype-vehicle347" length="6.814939351942929" mass="2117.300453028351" accel="5.225985369692108" decel="3.8709709726910573" emergencyDecel="4.78668520693981" minGap="6.307677892831364" color="#8A2BE2" guiShape="passenger/hatchback"/>
    <vType id="vtype-vehicle416" length="4.326319183524665" mass="2515.165328909402" accel="2.3543845240106003" decel="3.8062507021384593" emergencyDecel="7.628605403819801" minGap="9.439083338850157" color="#8A2BE2" guiShape="passenger/hatchback"/>
    <vType id="vtype-vehicle408" length="5.594993832126963" mass="2105.556203204685" accel="3.5914488610112523" decel="3.7915334463726937" emergencyDecel="6.381281650387092" minGap="8.824488252199268" color="#8A2BE2" guiShape="passenger/hatchback"/>
    <vType id="vtype-vehicle132" length="5.131301799533" mass="1430.7269791743456" accel="5.449561334507287" decel="3.9672837881688543" emergencyDecel="5.833593848111166" minGap="5.1166113969218605" color="#00BFFF" guiShape="passenger/sedan"/>
    <vType id="vtype-vehicle303" length="5.262335806225059" mass="1915.2408584107332" accel="2.1869326518011363" decel="3.3060798633425903" emergencyDecel="5.462417006459578" minGap="6.791082564814156" color="#FF4500" guiShape="passenger/hatchback"/>
    <vType id="vtype-vehicle210" length="5.812738177555117" mass="1626.866460634849" accel="4.052118497945565" decel="3.281538002762905" emergencyDecel="5.382503383563581" minGap="10.030974764988194" color="#00BFFF" guiShape="passenger/sedan"/>
    <vType id="vtype-vehicle190" length="2.0693835605717337" mass="2014.4390181987594" accel="3.7588735531626" decel="2.4548528836082077" emergencyDecel="6.433974943288496" minGap="10.172290043556567" color="#00BFFF" guiShape="passenger/sedan"/>
    <vType id="vtype-vehicle76" length="5.718877485134315" mass="1676.632410719479" accel="2.1" decel="3.1042649874165487" emergencyDecel="5.05626224220326" minGap="4.084163314759179" color="#FFFF00" guiShape="passenger/sedan"/>
    <vType id="vtype-vehicle255" length="4.832129516424275" mass="1671.3645001952684" accel="4.93189962509761" decel="2.390374625606524" emergencyDecel="5.55734602648497" minGap="5.483525119176683" color="#00BFFF" guiShape="passenger/sedan"/>
    <vType id="vtype-vehicle362" length="6.743477634099426" mass="2069.3356932561596" accel="2.420607191688756" decel="3.273369195437611" emergencyDecel="5.8065164993477145" minGap="6.375409642914318" color="#8A2BE2" guiShape="passenger/hatchback"/>
    <vType id="vtype-vehicle274" length="5.628292660202718" mass="1692.8354091274437" accel="2.1" decel="2.088464710414713" emergencyDecel="2.5744558441666756" minGap="8.511476422129363" color="#00BFFF" guiShape="passenger/sedan"/>
    <vType id="vtype-vehicle195" length="6.953165841148586" mass="1779.7386854639087" accel="2.3933561115317987" decel="0.880533814206097" emergencyDecel="5.3543765575922695" minGap="2.366873271565777" color="#00BFFF" guiShape="passenger/sedan"/>
    <vType id="vtype-vehicle308" length="5.1990970117899895" mass="1980.8042920094447" accel="3.6758903665893774" decel="2.410197579787154" emergencyDecel="6.4328664918118825" minGap="6.124205267298704" color="#8A2BE2" guiShape="passenger/hatchback"/>
    <vType id="vtype-vehicle435" length="3.2974169580004546" mass="2043.1542008985339" accel="2.1" decel="2.6400563281621463" emergencyDecel="6.108775298026971" minGap="8.774813017572054" color="#DC143C" guiShape="delivery"/>
    <vType id="vtype-vehicle377" length="5.0208765837367375" mass="2082.010288836167" accel="2.6712712040089146" decel="3.60577495934064" emergencyDecel="5.753943776118223" minGap="7.409859777814504" color="#8A2BE2" guiShape="passenger/hatchback"/>
    <vType id="vtype-vehicle48" length="5.968388128655714" mass="1534.6706279372538" accel="2.695966335448401" decel="2.7014268930541023" emergencyDecel="7.554756831657265" minGap="8.526137703314923" color="#FFFF00" guiShape="passenger/sedan"/>
    <vType id="vtype-vehicle4" length="4.6334003018027135" mass="1616.4489579473598" accel="3.5831164992810596" decel="3.8853281498144225" emergencyDecel="6.416961699861045" minGap="5.169893485462328" color="#FFFF00" guiShape="passenger/sedan"/>
    <vType id="vtype-vehicle45" length="4.341023264517165" mass="1588.5982056852033" accel="2.499100831096203" decel="2.887297405984026" emergencyDecel="6.227986502566308" minGap="5.351157770635304" color="#FFFF00" guiShape="passenger/sedan"/>
    <vType id="vtype-vehicle113" length="6.476384272577251" mass="1495.658706139971" accel="2.710387577175836" decel="3.029785565600293" emergencyDecel="4.7699852013896695" minGap="8.40969659622744" color="#00BFFF" guiShape="passenger/sedan"/>
    <vType id="vtype-vehicle67" length="3.2364199597611387" mass="1891.5223555672692" accel="6.225794817876714" decel="3.2080153183136018" emergencyDecel="4.991359406302512" minGap="10.822597882983203" color="#FFFF00" guiShape="passenger/sedan"/>
    <vType id="vtype-vehicle476" length="5.040588415368255" mass="2062.162492606926" accel="4.949358178762257" decel="3.204737529466289" emergencyDecel="6.085206769694409" minGap="7.088753160341428" color="#DC143C" guiShape="delivery"/>
    <vType id="vtype-vehicle13" length="6.408683974894256" mass="1131.6008032705279" accel="2.1" decel="3.019154418211056" emergencyDecel="6.454101811437267" minGap="7.255893163676477" color="#FFFF00" guiShape="passenger/sedan"/>
    <vType id="vtype-vehicle467" length="5.852371009980589" mass="1797.6069441857835" accel="3.871571921241634" decel="2.681695471581284" emergencyDecel="6.096576072103849" minGap="3.3428723510278457" color="#DC143C" guiShape="delivery"/>
    <vType id="vtype-vehicle158" length="2.376150663118123" mass="1498.8533236439257" accel="2.1" decel="2.511282020659511" emergencyDecel="7.59192986247268" minGap="8.814728995192333" color="#00BFFF" guiShape="passenger/sedan"/>
    <vType id="vtype-vehicle87" length="4.070716966779125" mass="1435.6703029101138" accel="3.996374756745595" decel="2.4044996201241284" emergencyDecel="4.892366433056779" minGap="9.851828164873396" color="#FFFF00" guiShape="passenger/sedan"/>
    <vType id="vtype-vehicle91" length="5.5299926310907335" mass="1630.535636539649" accel="2.1" decel="2.066788041093261" emergencyDecel="7.157870376397095" minGap="2.8816669263954227" color="#FFFF00" guiShape="passenger/sedan"/>
    <vType id="vtype-vehicle108" length="3.25208394502502" mass="1589.131254232993" accel="6.082403406937177" decel="2.5001810052423252" emergencyDecel="5.598179624806567" minGap="6.47261399827268" color="#00BFFF" guiShape="passenger/sedan"/>
    <vType id="vtype-vehicle27" length="5.176340013804936" mass="1391.9702390991197" accel="3.129160264840171" decel="2.5095116878900527" emergencyDecel="7.124648184641835" minGap="6.906329645148611" color="#FFFF00" guiShape="passenger/sedan"/>
    <vType id="vtype-vehicle12" length="5.689730995609308" mass="1634.7101859356073" accel="3.2498309847726543" decel="4.205178054879973" emergencyDecel="4.937563132863485" minGap="7.402129005066498" color="#FFFF00" guiShape="passenger/sedan"/>
    <vType id="vtype-vehicle373" length="6.023650188818083" mass="1735.3754275463004" accel="3.9376196554245277" decel="0.9589412873257959" emergencyDecel="7.034098305766256" minGap="4.469940119889388" color="#8A2BE2" guiShape="passenger/hatchback"/>
    <vType id="vtype-vehicle449" length="4.07885367988129" mass="1992.0817018669295" accel="3.024914472417256" decel="3.093707712044623" emergencyDecel="5.519090440918715" minGap="7.9925417510648025" color="#DC143C" guiShape="delivery"/>
    <vType id="vtype-vehicle327" length="3.5522452337012957" mass="1589.338385624526" accel="2.4566377620709274" decel="2.1306820225587293" emergencyDecel="7.1100526738890935" minGap="3.6694189682116227" color="#8A2BE2" guiShape="passenger/hatchback"/>
    <vType id="vtype-vehicle485" length="6.263741360293672" mass="1997.2722619814635" accel="2.4396311697816024" decel="3.9634543228008554" emergencyDecel="7.136047678701861" minGap="8.827616564209258" color="#DC143C" guiShape="delivery"/>
    <vType id="vtype-vehicle477" length="4.017549054894052" mass="2172.7552216335694" accel="2.64068976732187" decel="3.5941773783523763" emergencyDecel="7.669713060195692" minGap="8.279579456929115" color="#DC143C" guiShape="delivery"/>
    <vType id="vtype-vehicle83" length="4.691787838624194" mass="1556.4722882905107" accel="3.0897633300419596" decel="3.060651735701684" emergencyDecel="5.741818448244793" minGap="6.95957182184051" color="#FFFF00" guiShape="passenger/sedan"/>
    <vType id="vtype-vehicle116" length="3.32825546042087" mass="935.3390320194899" accel="3.6078809242544274" decel="1.8804863366017026" emergencyDecel="4.38414785844007" minGap="8.441562105152272" color="#00BFFF" guiShape="passenger/sedan"/>
    <vType id="vtype-vehicle464" length="5.589870566782067" mass="1968.7462134735902" accel="2.1" decel="6.020993411113337" emergencyDecel="4.413417830488125" minGap="9.957804375319414" color="#DC143C" guiShape="delivery"/>
    <vType id="vtype-vehicle14" length="4.059606239296366" mass="1388.0306358921835" accel="2.1" decel="3.082962913334798" emergencyDecel="4.241315519279165" minGap="6.9770131077562105" color="#FFFF00" guiShape="passenger/sedan"/>
    <vType id="vtype-vehicle231" length="3.6497571961183817" mass="1522.2986323221328" accel="5.951576293084054" decel="4.922968440984707" emergencyDecel="7.459809584508944" minGap="5.998025814616327" color="#00BFFF" guiShape="passenger/sedan"/>
    <vType id="vtype-vehicle439" length="5.2978558830604205" mass="1845.273257478793" accel="2.1" decel="3.7245964758026595" emergencyDecel="5.964203854262801" minGap="5.182979673312882" color="#DC143C" guiShape="delivery"/>
    <vType id="vtype-vehicle95" length="4.401267086392779" mass="1633.81599947738" accel="2.1" decel="2.724895520778806" emergencyDecel="5.388909260313107" minGap="11.221199498564994" color="#FFFF00" guiShape="passenger/sedan"/>
    <vType id="vtype-vehicle422" length="6.406855702356895" mass="2045.2601184379394" accel="5.303210576394902" decel="3.9348643611648746" emergencyDecel="6.349439514394431" minGap="6.600699661716032" color="#8A2BE2" guiShape="passenger/hatchback"/>
    <vType id="vtype-vehicle475" length="3.5041494020135184" mass="2252.3755845826176" accel="2.2832616578467393" decel="4.389961388320856" emergencyDecel="7.294747901549286" minGap="5.7757725031433536" color="#DC143C" guiShape="delivery"/>
    <vType id="vtype-vehicle421" length="6.7466525380629765" mass="2235.7948204145923" accel="2.450343089914056" decel="3.061206397113404" emergencyDecel="7.622851677482872" minGap="8.866852492779106" color="#8A2BE2" guiShape="passenger/hatchback"/>
    <vType id="vtype-vehicle153" length="5.89435063146354" mass="1699.5733344696093" accel="4.964450896372693" decel="2.2700931978999344" emergencyDecel="6.351539759134734" minGap="9.838259727428131" color="#00BFFF" guiShape="passenger/sedan"/>
    <vType id="vtype-vehicle219" length="3.9609947786489696" mass="1889.3436314789171" accel="2.707433027665423" decel="3.354074972556701" emergencyDecel="5.216988645640014" minGap="9.606362725473359" color="#00BFFF" guiShape="passenger/sedan"/>
    <vType id="vtype-vehicle360" length="4.43438111341652" mass="1995.0008159140039" accel="2.1036947200257146" decel="2.5550852580436505" emergencyDecel="7.1336816269444725" minGap="7.601574637647858" color="#8A2BE2" guiShape="passenger/hatchback"/>
    <vType id="vtype-vehicle232" length="4.316815803987929" mass="1840.5738466458647" accel="3.0066346233118613" decel="4.8862443535180535" emergencyDecel="6.436088562967776" minGap="8.535321232026774" color="#00BFFF" guiShape="passenger/sedan"/>
    <vType id="vtype-vehicle213" length="3.743955925684567" mass="1795.0816216930486" accel="2.1" decel="2.639748899130119" emergencyDecel="5.893501390857483" minGap="4.59171172356837" color="#00BFFF" guiShape="passenger/sedan"/>
    <vType id="vtype-vehicle162" length="3.9849934010633454" mass="1416.0574771840875" accel="3.7783087541491556" decel="3.0088795637893324" emergencyDecel="5.866187422681965" minGap="5.830779131933927" color="#00BFFF" guiShape="passenger/sedan"/>
    <vType id="vtype-vehicle58" length="4.2724484739348725" mass="1874.337933438389" accel="5.8625384104511475" decel="3.6090518345000446" emergencyDecel="7.001984316327501" minGap="8.252511538957378" color="#FFFF00" guiShape="passenger/sedan"/>
    <vType id="vtype-vehicle446" length="5.5145016631486445" mass="1933.7520812906714" accel="2.1945015223783946" decel="2.815591616655951" emergencyDecel="4.8348383937054376" minGap="6.237012806400219" color="#DC143C" guiShape="delivery"/>
    <vType id="vtype-vehicle333" length="4.219859103487531" mass="2144.089778350501" accel="3.0402215148850424" decel="3.1903369919430253" emergencyDecel="6.482745072427125" minGap="6.1768028916064806" color="#8A2BE2" guiShape="passenger/hatchback"/>
    <vType id="vtype-vehicle453" length="5.587678137931376" mass="2107.83044852462" accel="3.0971143332955813" decel="2.972210088882588" emergencyDecel="6.655318851039439" minGap="7.333164779671534" color="#DC143C" guiShape="delivery"/>
    <vType id="vtype-vehicle105" length="4.492782952288216" mass="1808.1794761814936" accel="3.5471368289805" decel="2.3209814889657783" emergencyDecel="6.596056736972262" minGap="7.082107814791971" color="#00BFFF" guiShape="passenger/sedan"/>
    <vType id="vtype-vehicle66" length="3.7001419230828265" mass="1561.0889725303891" accel="3.0685761301345607" decel="4.023879507401048" emergencyDecel="8.142394669445677" minGap="9.268473377057463" color="#FFFF00" guiShape="passenger/sedan"/>
    <vType id="vtype-vehicle142" length="4.700418354984539" mass="1891.6434319683062" accel="2.4929642634280524" decel="1.8757187056500497" emergencyDecel="4.145779365039762" minGap="10.822531937925438" color="#00BFFF" guiShape="passenger/sedan"/>
    <vType id="vtype-vehicle306" length="6.041274044169692" mass="1754.86784245033" accel="2.2181935125038263" decel="2.2947492996212246" emergencyDecel="6.829746116488915" minGap="11.747909370907777" color="#FF4500" guiShape="passenger/hatchback"/>
    <vType id="vtype-vehicle337" length="6.196995787011342" mass="1679.4869609445846" accel="3.593422981523533" decel="2.4664481663368276" emergencyDecel="6.052786377988935" minGap="5.437325476016057" color="#8A2BE2" guiShape="passenger/hatchback"/>
    <vType id="vtype-vehicle336" length="5.6926206460522675" mass="2095.588182645589" accel="3.4714008257123687" decel="2.786665960107834" emergencyDecel="7.125414318548355" minGap="4.765357919339368" color="#8A2BE2" guiShape="passenger/hatchback"/>
    <vType id="vtype-vehicle481" length="4.187560607898404" mass="2147.2257663811906" accel="4.747111219353694" decel="0.9791706886129261" emergencyDecel="7.264766686811818" minGap="4.113477823306084" color="#DC143C" guiShape="delivery"/>
    <vType id="vtype-vehicle229" length="4.67116653223387" mass="1725.4974893543076" accel="2.3449788089044046" decel="2.1081501313937814" emergencyDecel="6.051355842361851" minGap="9.864421233406414" color="#00BFFF" guiShape="passenger/sedan"/>
    <vType id="vtype-vehicle75" length="5.174981215348973" mass="1521.250515445838" accel="2.1" decel="3.0481500862698057" emergencyDecel="5.259332338691222" minGap="5.000778721401191" color="#FFFF00" guiShape="passenger/sedan"/>
    <vType id="vtype-vehicle466" length="3.729921538825926" mass="2080.4262612918437" accel="4.145202099184555" decel="4.667424983295751" emergencyDecel="8.551278585225484" minGap="4.589711437999247" color="#DC143C" guiShape="delivery"/>
    <vType id="vtype-vehicle349" length="5.965994101367501" mass="1946.8105822675984" accel="5.201557467947206" decel="4.206000918110004" emergencyDecel="6.7892740684480515" minGap="10.396712460992614" color="#8A2BE2" guiShape="passenger/hatchback"/>
    <vType id="vtype-vehicle121" length="5.244863992240558" mass="1622.0918716832368" accel="3.1113426042119587" decel="3.5518216035595707" emergencyDecel="6.452018175601201" minGap="6.4730078479223545" color="#00BFFF" guiShape="passenger/sedan"/>
    <vType id="vtype-vehicle118" length="5.349094563282093" mass="1672.9833965248793" accel="6.200227945540767" decel="2.5028126749340736" emergencyDecel="3.877284503192032" minGap="7.713871205923747" color="#00BFFF" guiShape="passenger/sedan"/>
    <vType id="vtype-vehicle235" length="4.5103346440525955" mass="1331.136202768598" accel="3.426840133973832" decel="3.0641360305333047" emergencyDecel="6.015870768394444" minGap="5.489249957046848" color="#00BFFF" guiShape="passenger/sedan"/>
    <vType id="vtype-vehicle188" length="5.83153694811754" mass="1648.4297304141667" accel="2.1" decel="3.449623421499561" emergencyDecel="6.8246671611920195" minGap="4.391906437759964" color="#00BFFF" guiShape="passenger/sedan"/>
    <vType id="vtype-vehicle345" length="5.165712090306686" mass="2187.3203423926493" accel="4.286521846733362" decel="2.269398596136579" emergencyDecel="4.528058668804764" minGap="10.710819472401024" color="#8A2BE2" guiShape="passenger/hatchback"/>
    <vType id="vtype-vehicle120" length="2.659602315332134" mass="1797.119457872416" accel="2.142111554728299" decel="1.9088892560987534" emergencyDecel="7.568584785218402" minGap="9.51660381087623" color="#00BFFF" guiShape="passenger/sedan"/>
    <vType id="vtype-vehicle498" length="14.48903229552759" mass="17619.111462488203" accel="4.874625902408012" decel="1.5484005117287103" emergencyDecel="5.897385532185438" minGap="8.191047546278464" color="#7CFC00" guiShape="bus"/>
    <vType id="vtype-vehicle212" length="3.8033707086017436" mass="1718.4674094168508" accel="2.1" decel="3.549811019075171" emergencyDecel="5.941179695203184" minGap="4.834417093155089" color="#00BFFF" guiShape="passenger/sedan"/>
    <vType id="vtype-vehicle137" length="4.029719984869076" mass="1596.6700733551315" accel="2.862574381215536" decel="4.040636189600413" emergencyDecel="7.292201275535432" minGap="7.841519038368477" color="#00BFFF" guiShape="passenger/sedan"/>
    <vType id="vtype-vehicle441" length="4.029436665847527" mass="2179.921084031207" accel="6.840090416655553" decel="4.779229934036878" emergencyDecel="5.515148879277252" minGap="6.692053588821103" color="#DC143C" guiShape="delivery"/>
    <vType id="vtype-vehicle138" length="4.062672421847569" mass="1687.2598405295012" accel="5.287341502031788" decel="3.1488145805481214" emergencyDecel="7.014134529020486" minGap="4.510592713348585" color="#00BFFF" guiShape="passenger/sedan"/>
    <vType id="vtype-vehicle456" length="4.574304051363709" mass="1869.268532736807" accel="4.303983423206797" decel="2.6889259883127945" emergencyDecel="5.218687642703908" minGap="5.703204217790438" color="#DC143C" guiShape="delivery"/>
    <vType id="vtype-vehicle20" length="3.989759554449851" mass="1609.6891936045913" accel="3.4570100893767295" decel="3.2315354830769967" emergencyDecel="5.960107500820163" minGap="8.840026060791697" color="#FFFF00" guiShape="passenger/sedan"/>
    <vType id="vtype-vehicle262" length="5.828877133847267" mass="1577.1023069049872" accel="3.567080496834775" decel="4.799024889560668" emergencyDecel="5.755869173120753" minGap="5.379742714949018" color="#00BFFF" guiShape="passenger/sedan"/>
    <vType id="vtype-vehicle469" length="3.8318506076554746" mass="2073.179193857049" accel="2.7589047540482143" decel="2.5148324372408832" emergencyDecel="6.864094120938083" minGap="9.784836170898092" color="#DC143C" guiShape="delivery"/>
    <vType id="vtype-vehicle172" length="6.152039939404353" mass="1305.2946212547517" accel="4.180111342952123" decel="2.101376486209387" emergencyDecel="5.698632846416913" minGap="5.6262057323864" color="#00BFFF" guiShape="passenger/sedan"/>
    <vType id="vtype-vehicle256" length="5.070023327628313" mass="1510.0730232233238" accel="4.084038478469361" decel="3.165602744520617" emergencyDecel="6.3477156335141975" minGap="6.91497409662899" color="#00BFFF" guiShape="passenger/sedan"/>
    <vType id="vtype-vehicle201" length="4.084712395129209" mass="1655.8111730160977" accel="3.7677099627467707" decel="2.601959201625366" emergencyDecel="7.05639958217651" minGap="7.262075623921172" color="#00BFFF" guiShape="passenger/sedan"/>
    <vType id="vtype-vehicle197" length="4.395550142891066" mass="1750.804585303305" accel="3.7909741737235088" decel="2.544291536581826" emergencyDecel="5.925269480047131" minGap="6.079282446601994" color="#00BFFF" guiShape="passenger/sedan"/>
    <vType id="vtype-vehicle2" length="5.714426224117895" mass="1592.7122419841282" accel="2.7608128546241204" decel="4.448305805240509" emergencyDecel="5.540515493860442" minGap="5.075595951102767" color="#FFFF00" guiShape="passenger/sedan"/>
    <vType id="vtype-vehicle178" length="3.890681937868589" mass="1709.592701984544" accel="4.1390569817374345" decel="4.382976622339726" emergencyDecel="5.358513451942322" minGap="9.22911392334412" color="#00BFFF" guiShape="passenger/sedan"/>
    <vType id="vtype-vehicle458" length="3.8487365410475265" mass="2101.091389090638" accel="2.1" decel="3.208034484248522" emergencyDecel="5.948615172059964" minGap="5.797507560550329" color="#DC143C" guiShape="delivery"/>
    <vType id="vtype-vehicle171" length="5.104115952643921" mass="1132.4120164871165" accel="2.1" decel="1.955785049297849" emergencyDecel="6.2155533510487295" minGap="9.990736090262638" color="#00BFFF" guiShape="passenger/sedan"/>
    <vType id="vtype-vehicle272" length="5.402665363139382" mass="2107.871143135648" accel="2.338877312851614" decel="3.697772773546143" emergencyDecel="6.16266249984027" minGap="7.351198498970532" color="#00BFFF" guiShape="passenger/sedan"/>
    <vType id="vtype-vehicle358" length="6.867971545719998" mass="2413.228818954479" accel="2.1" decel="2.9886052498704547" emergencyDecel="4.159765292370873" minGap="4.834993639515893" color="#8A2BE2" guiShape="passenger/hatchback"/>
    <vType id="vtype-vehicle395" length="5.868181991403238" mass="1940.5105744896694" accel="2.869289744990138" decel="2.13805257335117" emergencyDecel="4.412129675048746" minGap="11.003476474494557" color="#8A2BE2" guiShape="passenger/hatchback"/>
    <vType id="vtype-vehicle388" length="6.024910401463502" mass="1966.8297764054366" accel="4.870404206472106" decel="4.179798579139742" emergencyDecel="6.313451948580779" minGap="7.729093582855113" color="#8A2BE2" guiShape="passenger/hatchback"/>
    <vType id="vtype-vehicle425" length="4.399315500660556" mass="2428.5137672086303" accel="4.785497012355949" decel="1.0757616055040307" emergencyDecel="7.550297270076123" minGap="7.038365167590204" color="#DC143C" guiShape="delivery"/>
    <vType id="vtype-vehicle348" length="6.569734884668619" mass="1996.6105478070774" accel="5.08843933720179" decel="2.282551257401561" emergencyDecel="5.083980699645474" minGap="2.854830397834821" color="#8A2BE2" guiShape="passenger/hatchback"/>
    <vType id="vtype-vehicle226" length="5.943070415617169" mass="1420.5369322536494" accel="2.3676315418851663" decel="2.6063122253615805" emergencyDecel="6.413987040802761" minGap="8.876385485504763" color="#00BFFF" guiShape="passenger/sedan"/>
    <vType id="vtype-vehicle492" length="4.723747972766818" mass="2012.7745757643222" accel="4.4747392571817075" decel="2.9368978929741214" emergencyDecel="5.376482928789846" minGap="4.024127653758596" color="#DC143C" guiShape="delivery"/>
    <vType id="vtype-vehicle50" length="4.742672741118892" mass="1447.8212837754465" accel="4.625880825800197" decel="4.30808201219383" emergencyDecel="4.979041582971999" minGap="5.491101507452459" color="#FFFF00" guiShape="passenger/sedan"/>
    <vType id="vtype-vehicle352" length="5.9668466975760674" mass="1865.7221238331938" accel="2.446069146997328" decel="1.7296175825211413" emergencyDecel="5.921491064692736" minGap="5.88139363953351" color="#8A2BE2" guiShape="passenger/hatchback"/>
    <vType id="vtype-vehicle62" length="3.5546234362487477" mass="1869.1239537523795" accel="3.0764414465459744" decel="4.025050151177012" emergencyDecel="5.649240231214546" minGap="5.712663302150553" color="#FFFF00" guiShape="passenger/sedan"/>
    <vType id="vtype-vehicle3" length="4.2309945716547555" mass="1591.811919503737" accel="4.684895425582944" decel="3.2895414073829508" emergencyDecel="4.9021925576185925" minGap="7.093316481057354" color="#FFFF00" guiShape="passenger/sedan"/>
    <vType id="vtype-vehicle10" length="3.232021716480381" mass="1789.9913689745556" accel="4.590680731956951" decel="4.0378773598281095" emergencyDecel="5.6515539152511165" minGap="7.210268355774433" color="#FFFF00" guiShape="passenger/sedan"/>
    <vType id="vtype-vehicle413" length="2.05778836658461" mass="2188.4152402068994" accel="2.1" decel="4.089215859007006" emergencyDecel="6.547688322791337" minGap="8.919425827615468" color="#8A2BE2" guiShape="passenger/hatchback"/>
    <vType id="vtype-vehicle260" length="4.260734589077152" mass="1756.3900526407722" accel="3.2767836774785906" decel="2.818441595559401" emergencyDecel="5.654056425857618" minGap="9.485094747234893" color="#00BFFF" guiShape="passenger/sedan"/>
    <vType id="vtype-vehicle139" length="4.958326708304156" mass="1552.5993715815673" accel="4.431355512912044" decel="3.4544314358279644" emergencyDecel="7.18527187999482" minGap="5.018566418946042" color="#00BFFF" guiShape="passenger/sedan"/>
    <vType id="vtype-vehicle99" length="5.330876696990248" mass="1545.5261607252935" accel="2.106699473911412" decel="3.232638421933824" emergencyDecel="5.58134364876808" minGap="4.325507047971904" color="#FFFF00" guiShape="passenger/sedan"/>
    <vType id="vtype-vehicle23" length="3.5440595139667868" mass="1179.7801754789996" accel="3.62582436722382" decel="1.0563041960317425" emergencyDecel="4.9404784074224155" minGap="2.258372055133388" color="#FFFF00" guiShape="passenger/sedan"/>
    <vType id="vtype-vehicle30" length="5.715575447913991" mass="1665.2866785463993" accel="2.1" decel="4.029827387411377" emergencyDecel="5.578989791431259" minGap="6.548611827663077" color="#FFFF00" guiShape="passenger/sedan"/>
    <vType id="vtype-vehicle119" length="5.092048126143705" mass="1527.3815307503817" accel="2.5538774309678876" decel="2.6310905632643378" emergencyDecel="4.700953432804209" minGap="7.24099441555586" color="#00BFFF" guiShape="passenger/sedan"/>
    <vType id="vtype-vehicle1" length="2.817829222699258" mass="1599.6881160037628" accel="2.1" decel="2.3360868221391664" emergencyDecel="4.92807268475876" minGap="11.92376805963763" color="#FFFF00" guiShape="passenger/sedan"/>
    <vType id="vtype-vehicle268" length="3.7584307594219206" mass="1614.6873288928066" accel="5.9168697110925494" decel="3.306429204397041" emergencyDecel="6.742633765710254" minGap="7.219573943716833" color="#00BFFF" guiShape="passenger/sedan"/>
    <vType id="vtype-vehicle398" length="6.258923413683209" mass="2008.4540986281556" accel="2.1" decel="3.381724747120413" emergencyDecel="4.271355354882081" minGap="7.624196396918963" color="#8A2BE2" guiShape="passenger/hatchback"/>