<?xml version="1.0" ?>
<routes>
    <vType id="vtype-vehicle615" length="5.774988053524877" mass="2056.1040207873225" accel="3.657075112421211" decel="2.4826911795536533" emergencyDecel="6.380102303977525" minGap="9.01701238183126" color="#8A2BE2" guiShape="passenger/hatchback"/>
    <vType id="vtype-vehicle580" length="5.144812050069123" mass="1757.6980213337808" accel="3.667811905289001" decel="1.5942718031713483" emergencyDecel="7.336932989692157" minGap="7.609636550657442" color="#8A2BE2" guiShape="passenger/hatchback"/>
    <vType id="vtype-vehicle324" length="3.5234276148619865" mass="1676.9426423263167" accel="2.6294592803275143" decel="3.512722931952829" emergencyDecel="5.8818446025752715" minGap="4.9483428765339585" color="#00BFFF" guiShape="passenger/sedan"/>
    <vType id="vtype-vehicle28" length="4.981156229259434" mass="1723.8449490895675" accel="5.035947297612124" decel="2.244217831611828" emergencyDecel="5.9542708063751215" minGap="4.913891475699724" color="#FFFF00" guiShape="passenger/sedan"/>
    <vType id="vtype-vehicle637" length="4.411437536435382" mass="2030.9303801325211" accel="3.9290421115218823" decel="2.4670594071432563" emergencyDecel="7.052169266089147" minGap="6.648119191250603" color="#8A2BE2" guiShape="passenger/hatchback"/>
    <vType id="vtype-vehicle750" length="4.311501055689959" mass="2013.029308823343" accel="5.044013824939819" decel="3.8780640390788497" emergencyDecel="5.366221278158793" minGap="5.9046460721875915" color="#8A2BE2" guiShape="passenger/hatchback"/>
    <vType id="vtype-vehicle438" length="2.4435920357148997" mass="1729.4973274782658" accel="3.9781912614884196" decel="2.201274412844081" emergencyDecel="6.6931128348044435" minGap="5.306787238083401" color="#00BFFF" guiShape="passenger/sedan"/>
    <vType id="vtype-vehicle72" length="4.894840060828684" mass="1665.8650895689368" accel="2.1" decel="1.7354500055502913" emergencyDecel="4.564572935251576" minGap="8.58019455072479" color="#FFFF00" guiShape="passenger/sedan"/>
    <vType id="vtype-vehicle328" length="5.527540340730434" mass="1375.1283945247612" accel="4.561549095579412" decel="3.1338782652937063" emergencyDecel="4.530048016969646" minGap="5.22090376289249" color="#00BFFF" guiShape="passenger/sedan"/>
    <vType id="vtype-vehicle552" length="5.016954901581584" mass="1804.7802756840902" accel="3.9435050219371215" decel="5.7802310295909285" emergencyDecel="4.622464255291094" minGap="8.404288209188174" color="#FF4500" guiShape="passenger/hatchback"/>
    <vType id="vtype-vehicle88" length="5.382397149919512" mass="1658.9622058555124" accel="4.946810443833325" decel="2.8910249838377893" emergencyDecel="6.151988689717298" minGap="6.076043575130874" color="#FFFF00" guiShape="passenger/sedan"/>
    <vType id="vtype-vehicle462" length="4.137488374278011" mass="1603.3317269210438" accel="2.1" decel="2.4777400965314746" emergencyDecel="7.754790959008012" minGap="10.153628511395302" color="#00BFFF" guiShape="passenger/sedan"/>
    <vType id="vtype-vehicle743" length="4.608839830290206" mass="1813.4586545002453" accel="3.549959702209665" decel="2.482327121350348" emergencyDecel="4.547882117853095" minGap="7.696807311332237" color="#8A2BE2" guiShape="passenger/hatchback"/>
    <vType id="vtype-vehicle494" length="4.7299825481042115" mass="1847.066169787769" accel="2.1" decel="5.3499575371753245" emergencyDecel="5.877941971999978" minGap="5.448643031017194" color="#00BFFF" guiShape="passenger/sedan"/>
    <vType id="vtype-vehicle256" length="4.708944531597838" mass="1661.3754788167678" accel="5.4393878740339385" decel="2.5939661026697354" emergencyDecel="6.208801656153419" minGap="7.215180677979416" color="#00BFFF" guiShape="passenger/sedan"/>
    <vType id="vtype-vehicle291" length="3.864723788710087" mass="1478.3415327078833" accel="3.8965200205205943" decel="3.292921266709994" emergencyDecel="5.999698340296559" minGap="6.211579539102225" color="#00BFFF" guiShape="passenger/sedan"/>
    <vType id="vtype-vehicle636" length="5.7025280669101175" mass="2187.1894132543043" accel="2.1" decel="4.086271267883532" emergencyDecel="6.736342655123965" minGap="8.433910798805538" color="#8A2BE2" guiShape="passenger/hatchback"/>
    <vType id="vtype-vehicle337" length="5.472582774957811" mass="1787.3695967485562" accel="2.1" decel="2.7560375569736615" emergencyDecel="7.090110084801536" minGap="7.894399690309726" color="#00BFFF" guiShape="passenger/sedan"/>
    <vType id="vtype-vehicle659" length="4.944133221257363" mass="2051.5266987995183" accel="2.60228034442297" decel="3.3172958791701506" emergencyDecel="4.718505236646097" minGap="7.904849140494187" color="#8A2BE2" guiShape="passenger/hatchback"/>
    <vType id="vtype-vehicle516" length="6.326294186638159" mass="1717.3709924839925" accel="4.174736304839658" decel="0.9869320647843907" emergencyDecel="7.370885137684861" minGap="4.003918905646149" color="#00BFFF" guiShape="passenger/sedan"/>
    <vType id="vtype-vehicle320" length="5.287508717603586" mass="1372.3300494503528" accel="3.425567217385257" decel="1.929246127923542" emergencyDecel="4.724199665003112" minGap="6.099678822861282" color="#00BFFF" guiShape="passenger/sedan"/>
    <vType id="vtype-vehicle787" length="6.4871125375698835" mass="3273.4377622003335" accel="4.138858378073191" decel="1.4231497140012006" emergencyDecel="5.1079297804139765" minGap="5.940647977749174" color="#DC143C" guiShape="delivery"/>
    <vType id="vtype-vehicle575" length="4.836814057931208" mass="2097.9898624331904" accel="2.1" decel="1.7832310299180536" emergencyDecel="4.066270949154377" minGap="11.961363166833081" color="#8A2BE2" guiShape="passenger/hatchback"/>
    <vType id="vtype-vehicle55" length="4.37670082831087" mass="1550.0041351076818" accel="2.1" decel="4.304791564990434" emergencyDecel="7.411858058481154" minGap="6.827699464624267" color="#FFFF00" guiShape="passenger/sedan"/>
    <vType id="vtype-vehicle442" length="2.38795321702742" mass="2047.3591408806396" accel="7.034509577268896" decel="2.6493137810849614" emergencyDecel="4.6926665801801" minGap="10.446110222064116" color="#00BFFF" guiShape="passenger/sedan"/>
    <vType id="vtype-vehicle565" length="6.641856024581076" mass="2021.5953502313398" accel="2.3620112153012895" decel="2.978481323158003" emergencyDecel="4.965121164060876" minGap="8.095815735200118" color="#8A2BE2" guiShape="passenger/hatchback"/>
    <vType id="vtype-vehicle376" length="3.3925598629342906" mass="1807.978624081851" accel="3.1906865045400243" decel="2.036539112359412" emergencyDecel="5.580990560287035" minGap="7.6339743993063145" color="#00BFFF" guiShape="passenger/sedan"/>
    <vType id="vtype-vehicle642" length="5.385164850007059" mass="2217.6238117349935" accel="2.1369292953917847" decel="1.3928146253536642" emergencyDecel="6.330613274459058" minGap="6.407678722668423" color="#8A2BE2" guiShape="passenger/hatchback"/>
    <vType id="vtype-vehicle810" length="5.4147766494931115" mass="2865.7278366483106" accel="3.6403267656881813" decel="2.2731469516749496" emergencyDecel="7.644605399363938" minGap="4.218282234292492" color="#DC143C" guiShape="delivery"/>
    <vType id="vtype-vehicle833" length="4.8663111350218875" mass="3139.1817608732326" accel="2.1" decel="2.180595964885427" emergencyDecel="5.7196252229073306" minGap="7.837246797742941" color="#DC143C" guiShape="delivery"/>
    <vType id="vtype-vehicle796" length="4.957994632051156" mass="3209.376216334288" accel="2.1" decel="1.129804132901268" emergencyDecel="6.12806280842298" minGap="7.891028051155881" color="#DC143C" guiShape="delivery"/>
    <vType id="vtype-vehicle675" length="6.7557603417814995" mass="2005.1231521485995" accel="6.3021890356347745" decel="3.0860949257303987" emergencyDecel="6.634277940548493" minGap="5.355804321706593" color="#8A2BE2" guiShape="passenger/hatchback"/>
    <vType id="vtype-vehicle124" length="6.329759870909002" mass="1658.8716804433045" accel="2.1" decel="2.7517396981004962" emergencyDecel="6.3577620358756946" minGap="8.51719912121804" color="#FFFF00" guiShape="passenger/sedan"/>
    <vType id="vtype-vehicle57" length="5.433892350430016" mass="1534.6909411581294" accel="4.48372525394786" decel="3.460217179449886" emergencyDecel="4.310222709335496" minGap="9.12192654065767" color="#FFFF00" guiShape="passenger/sedan"/>
    <vType id="vtype-vehicle487" length="3.7202339194996186" mass="1445.3217361729228" accel="4.358122488798783" decel="3.5839361465458577" emergencyDecel="4.457519938738964" minGap="9.352507524661792" color="#00BFFF" guiShape="passenger/sedan"/>
    <vType id="vtype-vehicle585" length="8.419202622626017" mass="1847.1572081942118" accel="4.711720208412215" decel="2.0081157611730247" emergencyDecel="7.2777096840433515" minGap="9.266400944426543" color="#8A2BE2" guiShape="passenger/hatchback"/>
    <vType id="vtype-vehicle148" length="6.8769659788436" mass="1525.4237364000073" accel="2.1" decel="0.9287585194063119" emergencyDecel="6.783830235027553" minGap="7.641054752466138" color="#FFFF00" guiShape="passenger/sedan"/>
    <vType id="vtype-vehicle664" length="4.813052588164655" mass="1936.056513046004" accel="4.20926028101016" decel="2.8193764864485473" emergencyDecel="4.738252107156254" minGap="8.603402698538211" color="#8A2BE2" guiShape="passenger/hatchback"/>
    <vType id="vtype-vehicle690" length="5.059602379576302" mass="1968.353815221562" accel="2.6203113148537556" decel="1.7195629346738572" emergencyDecel="7.151246493911156" minGap="5.480383381079805" color="#8A2BE2" guiShape="passenger/hatchback"/>
    <vType id="vtype-vehicle548" length="5.589108100710938" mass="1800.877634465279" accel="2.1" decel="4.336627150055724" emergencyDecel="5.525913213430718" minGap="5.990611078068685" color="#FF4500" guiShape="passenger/hatchback"/>
    <vType id="vtype-vehicle758" length="5.832554363524371" mass="2216.370507697341" accel="3.4075039136769116" decel="1.810432141356034" emergencyDecel="4.857274899228257" minGap="9.993669562636322" color="#8A2BE2" guiShape="passenger/hatchback"/>
    <vType id="vtype-vehicle181" length="4.444142479360715" mass="1616.750500317423" accel="2.1" decel="4.145062571151614" emergencyDecel="5.295741847326465" minGap="5.71185269912497" color="#FFFF00" guiShape="passenger/sedan"/>
    <vType id="vtype-vehicle871" length="4.252211149523925" mass="2900.919769197346" accel="4.452324073399459" decel="2.3955204984181147" emergencyDecel="5.747226640282211" minGap="6.866711412891326" color="#DC143C" guiShape="delivery"/>
    <vType id="vtype-vehicle660" length="4.114264534269176" mass="2310.155248580688" accel="5.716385417263707" decel="2.31179188724744" emergencyDecel="7.597905681998418" minGap="7.339569919697075" color="#8A2BE2" guiShape="passenger/hatchback"/>
    <vType id="vtype-vehicle661" length="3.200383528715844" mass="2166.4038293772833" accel="7.774460683574572" decel="3.316001308876282" emergencyDecel="3.6111628692145334" minGap="7.500971992586918" color="#8A2BE2" guiShape="passenger/hatchback"/>
    <vType id="vtype-vehicle806" length="3.2504327284150065" mass="3084.6200235229935" accel="4.046872423944802" decel="3.2990901405258524" emergencyDecel="7.030620550757479" minGap="3.052604704843259" color="#DC143C" guiShape="delivery"/>
    <vType id="vtype-vehicle331" length="5.116188620354862" mass="1131.2958719550306" accel="4.214207912626415" decel="1.2506587441046029" emergencyDecel="4.889991135940645" minGap="7.23838274750547" color="#00BFFF" guiShape="passenger/sedan"/>
    <vType id="vtype-vehicle583" length="3.878663550590197" mass="2243.3127349807687" accel="4.835154418136183" decel="3.232166573254303" emergencyDecel="5.691303018802063" minGap="8.233952422957794" color="#8A2BE2" guiShape="passenger/hatchback"/>
    <vType id="vtype-vehicle465" length="7.704373135647293" mass="1587.119525907631" accel="2.1" decel="2.372269631418786" emergencyDecel="4.5125546971045125" minGap="6.012274228935895" color="#00BFFF" guiShape="passenger/sedan"/>
    <vType id="vtype-vehicle262" length="3.3315842328311733" mass="1848.8824617265955" accel="3.0876782369532396" decel="3.6096559906367416" emergencyDecel="8.778257472013369" minGap="4.092561738361594" color="#00BFFF" guiShape="passenger/sedan"/>
    <vType id="vtype-vehicle22" length="3.426274932210262" mass="1596.316927854442" accel="2.1" decel="3.028167105269035" emergencyDecel="5.0845573144419705" minGap="7.24431428404441" color="#FFFF00" guiShape="passenger/sedan"/>
    <vType id="vtype-vehicle115" length="3.460414876236422" mass="1515.3069312304374" accel="5.560396156727214" decel="2.848472957787615" emergencyDecel="5.435955605177589" minGap="8.194295179848671" color="#FFFF00" guiShape="passenger/sedan"/>
    <vType id="vtype-vehicle221" length="5.296339921686934" mass="1641.296178675908" accel="2.1" decel="2.465332523910887" emergencyDecel="7.336733998556355" minGap="8.542904008643648" color="#00BFFF" guiShape="passenger/sedan"/>
    <vType id="vtype-vehicle15" length="4.929688730612191" mass="1585.6423165938486" accel="2.73696640919469" decel="1.3781638990588057" emergencyDecel="5.670357502201057" minGap="9.22650566335685" color="#FFFF00" guiShape="passenger/sedan"/>
    <vType id="vtype-vehicle264" length="4.5553284278860176" mass="1783.9032501059858" accel="4.188059023961821" decel="2.099927427492263" emergencyDecel="4.69779970801909" minGap="5.650409357428964" color="#00BFFF" guiShape="passenger/sedan"/>
    <vType id="vtype-vehicle400" length="4.944862353677042" mass="1676.7487718759062" accel="4.137173911533189" decel="3.5594388902566276" emergencyDecel="4.285860422941424" minGap="4.746142077389306" color="#00BFFF" guiShape="passenger/sedan"/>
    <vType id="vtype-vehicle166" length="4.340186062851273" mass="2095.5712106758538" accel="3.3743922060722147" decel="3.0574263957420937" emergencyDecel="5.28122433482583" minGap="8.600926729216019" color="#FFFF00" guiShape="passenger/sedan"/>
    <vType id="vtype-vehicle1" length="3.7915406525901734" mass="1385.4245485284193" accel="2.1" decel="2.816503474814057" emergencyDecel="5.927914482103234" minGap="6.139971458339762" color="#FFFF00" guiShape="passenger/sedan"/>
    <vType id="vtype-vehicle168" length="4.670655258360448" mass="1792.96825234549" accel="2.1" decel="3.304090379979413" emergencyDecel="5.64695507912889" minGap="7.602716326004775" color="#FFFF00" guiShape="passenger/sedan"/>
    <vType id="vtype-vehicle370" length="3.494901559220997" mass="1665.6289078057116" accel="2.1" decel="3.0630390761030917" emergencyDecel="5.247971503412472" minGap="7.34835122112457" color="#00BFFF" guiShape="passenger/sedan"/>
    <vType id="vtype-vehicle567" length="7.130140944908074" mass="1627.9581113258273" accel="2.1" decel="2.790871255429235" emergencyDecel="6.1041274254514395" minGap="9.293028101229519" color="#8A2BE2" guiShape="passenger/hatchback"/>
    <vType id="vtype-vehicle632" length="5.516633688350398" mass="2379.0449686397496" accel="4.589918148606394" decel="3.3574176774832947" emergencyDecel="6.772929091118502" minGap="5.537091173538542" color="#8A2BE2" guiShape="passenger/hatchback"/>
    <vType id="vtype-vehicle691" length="4.278555878508133" mass="2068.5203463205125" accel="2.1" decel="2.4534838401596097" emergencyDecel="7.637707266776537" minGap="5.9164415916223" color="#8A2BE2" guiShape="passenger/hatchback"/>
    <vType id="vtype-vehicle755" length="5.492415963555823" mass="2333.964767862381" accel="3.702381798437685" decel="2.1077785330250767" emergencyDecel="6.01981769772636" minGap="4.609169492294228" color="#8A2BE2" guiShape="passenger/hatchback"/>
    <vType id="vtype-vehicle786" length="6.3194026097464455" mass="3046.412199534705" accel="3.550040624656383" decel="3.6092768198861207" emergencyDecel="5.995550608464114" minGap="6.85105454180753" color="#DC143C" guiShape="delivery"/>
    <vType id="vtype-vehicle475" length="4.591116020964361" mass="1458.1897398317365" accel="2.7833812520440153" decel="3.4464689251563736" emergencyDecel="5.711508668083335" minGap="5.0574809999030625" color="#00BFFF" guiShape="passenger/sedan"/>
    <vType id="vtype-vehicle749" length="4.713057100686161" mass="2175.5798506243545" accel="2.1" decel="3.299127590372324" emergencyDecel="6.724505814022026" minGap="8.06426847999357" color="#8A2BE2" guiShape="passenger/hatchback"/>
    <vType id="vtype-vehicle665" length="4.703388238405392" mass="2220.901901854418" accel="2.1" decel="6.807939676923509" emergencyDecel="5.802950653681908" minGap="10.9867969446007" color="#8A2BE2" guiShape="passenger/hatchback"/>
    <vType id="vtype-vehicle640" length="5.963370267036721" mass="2006.8382417755774" accel="4.129246297809484" decel="3.9330297095513784" emergencyDecel="7.82842486185573" minGap="7.067376048784872" color="#8A2BE2" guiShape="passenger/hatchback"/>
    <vType id="vtype-vehicle94" length="5.437052081849456" mass="1763.7920770756018" accel="2.1" decel="2.2575365583551332" emergencyDecel="5.001290018576397" minGap="4.917339100177971" color="#FFFF00" guiShape="passenger/sedan"/>
    <vType id="vtype-vehicle485" length="3.8121843121108836" mass="1854.2086037302822" accel="5.8899141452993575" decel="1.8493348530082638" emergencyDecel="6.330460414386351" minGap="6.702772434589605" color="#00BFFF" guiShape="passenger/sedan"/>
    <vType id="vtype-vehicle333" length="3.866720374317987" mass="1961.4963826065396" accel="4.041407319852756" decel="4.243252259323443" emergencyDecel="6.132807738823985" minGap="9.564693653887359" color="#00BFFF" guiShape="passenger/sedan"/>
    <vType id="vtype-vehicle407" length="3.8846257091759435" mass="2013.4328858739946" accel="2.1" decel="2.8052117922596307" emergencyDecel="6.845034187008225" minGap="5.025453782856667" color="#00BFFF" guiShape="passenger/sedan"/>
    <vType id="vtype-vehicle613" length="4.083974813179172" mass="2411.7734392607335" accel="6.250248877097368" decel="2.8335769766250336" emergencyDecel="5.870886540251028" minGap="8.375407130700141" color="#8A2BE2" guiShape="passenger/hatchback"/>
    <vType id="vtype-vehicle768" length="4.050533595737624" mass="2073.344738087718" accel="5.808014935549167" decel="3.708144360088305" emergencyDecel="6.622200164975509" minGap="6.011759100424101" color="#8A2BE2" guiShape="passenger/hatchback"/>
    <vType id="vtype-vehicle151" length="4.369126965550382" mass="1408.0083256090666" accel="3.4185777907969768" decel="4.420381280842827" emergencyDecel="5.085495850200752" minGap="7.530564153473152" color="#FFFF00" guiShape="passenger/sedan"/>
    <vType id="vtype-vehicle50" length="3.9190271561906767" mass="1158.505911070289" accel="2.1" decel="2.2943462010872664" emergencyDecel="6.766454115458566" minGap="5.821546472225631" color="#FFFF00" guiShape="passenger/sedan"/>
    <vType id="vtype-vehicle794" length="3.8391228526456684" mass="2642.3621552483396" accel="5.719664946313136" decel="2.3495491887542723" emergencyDecel="5.4702019037197775" minGap="8.289763062569536" color="#DC143C" guiShape="delivery"/>
    <vType id="vtype-vehicle53" length="4.933445194659297" mass="1901.333754776419" accel="2.8037087635663345" decel="2.945743951292798" emergencyDecel="6.712564139833886" minGap="5.957016550750839" color="#FFFF00" guiShape="passenger/sedan"/>
    <vType id="vtype-vehicle496" length="3.365054067396308" mass="1640.67048929448" accel="2.1" decel="4.98782269903243" emergencyDecel="6.230095593592988" minGap="7.615919934546655" color="#00BFFF" guiShape="passenger/sedan"/>
    <vType id="vtype-vehicle589" length="3.9439289021995174" mass="2010.4956768824754" accel="2.1" decel="1.19544897556929" emergencyDecel="5.8705132341100725" minGap="7.14701677565993" color="#8A2BE2" guiShape="passenger/hatchback"/>
    <vType id="vtype-vehicle744" length="6.008940249098892" mass="1961.4311651048251" accel="2.354418420119732" decel="3.5689027423338" emergencyDecel="5.446619005110697" minGap="5.721753227438162" color="#8A2BE2" guiShape="passenger/hatchback"/>
    <vType id="vtype-vehicle3" length="4.17052462789533" mass="1581.171716950043" accel="3.2966024284135713" decel="4.666165146180822" emergencyDecel="7.372833773337212" minGap="4.086821701597498" color="#FFFF00" guiShape="passenger/sedan"/>
    <vType id="vtype-vehicle740" length="5.272707171878775" mass="2067.645898825089" accel="2.1" decel="4.702603309490112" emergencyDecel="5.893458758565535" minGap="5.110855102436005" color="#8A2BE2" guiShape="passenger/hatchback"/>
    <vType id="vtype-vehicle13" length="3.3221960938099135" mass="1387.3373491670789" accel="2.1" decel="3.120192453448435" emergencyDecel="5.932027839762961" minGap="8.88629141153706" color="#FFFF00" guiShape="passenger/sedan"/>
    <vType id="vtype-vehicle425" length="4.666857304123883" mass="2038.139951846477" accel="3.1657575963047164" decel="4.489919572248249" emergencyDecel="6.720765576511211" minGap="9.74727376970153" color="#00BFFF" guiShape="passenger/sedan"/>
    <vType id="vtype-vehicle357" length="4.562329966837293" mass="1665.067945482856" accel="4.857613591362895" decel="3.3021434037611654" emergencyDecel="6.8221884492641145" minGap="5.458996088343564" color="#00BFFF" guiShape="passenger/sedan"/>
    <vType id="vtype-vehicle622" length="5.173016037070756" mass="2261.4304453677964" accel="4.160295132240456" decel="1.9519770923815054" emergencyDecel="5.426184298789473" minGap="7.746301485276724" color="#8A2BE2" guiShape="passenger/hatchback"/>
    <vType id="vtype-vehicle302" length="4.711479856513734" mass="1673.466743650619" accel="4.120964946288352" decel="2.552204606018503" emergencyDecel="6.452730826328026" minGap="7.0231234602497725" color="#00BFFF" guiShape="passenger/sedan"/>
    <vType id="vtype-vehicle128" length="5.308983809127158" mass="1387.6191742897265" accel="3.662505333924311" decel="3.717968440190126" emergencyDecel="6.4017497104975485" minGap="5.630967428838029" color="#FFFF00" guiShape="passenger/sedan"/>
    <vType id="vtype-vehicle126" length="4.747913578400713" mass="1503.1423299783876" accel="2.1" decel="3.676341935108663" emergencyDecel="5.621331925898233" minGap="2.2001743803158016" color="#FFFF00" guiShape="passenger/sedan"/>
    <vType id="vtype-vehicle412" length="4.904686779174895" mass="1317.7542294583816" accel="6.651959693196865" decel="4.310879998870866" emergencyDecel="6.040967613725634" minGap="7.158838780835772" color="#00BFFF" guiShape="passenger/sedan"/>
    <vType id="vtype-vehicle804" length="5.76159227951736" mass="2854.495783307811" accel="4.131944496625606" decel="3.378713406802417" emergencyDecel="7.129940041253613" minGap="9.72944064273312" color="#DC143C" guiShape="delivery"/>
    <vType id="vtype-vehicle528" length="4.015082051749547" mass="1556.5626320901254" accel="2.735986095247699" decel="1.5770410188851978" emergencyDecel="5.659826546013753" minGap="7.449837553354856" color="#00BFFF" guiShape="passenger/sedan"/>
    <vType id="vtype-vehicle185" length="4.269268960436469" mass="1675.66950924658" accel="2.1" decel="2.160694896870727" emergencyDecel="5.302370496612696" minGap="6.402305717019769" color="#FFFF00" guiShape="passenger/sedan"/>
    <vType id="vtype-vehicle700" length="4.118092616913304" mass="2120.9847952646796" accel="3.742252458915085" decel="3.5233010743467883" emergencyDecel="6.339852433861552" minGap="8.550650547604329" color="#8A2BE2" guiShape="passenger/hatchback"/>
    <vType id="vtype-vehicle460" length="4.38162937175263" mass="1335.9534200040448" accel="4.674928478943843" decel="3.8468722937589326" emergencyDecel="4.397302773133742" minGap="6.999203364287577" color="#00BFFF" guiShape="passenger/sedan"/>
    <vType id="vtype-vehicle275" length="2.8067898123701456" mass="1796.911089165721" accel="2.9212196337282976" decel="1.5532928926530927" emergencyDecel="6.067849443975109" minGap="8.057298767526078" color="#00BFFF" guiShape="passenger/sedan"/>
    <vType id="vtype-vehicle14" length="4.268493933814819" mass="1545.2155445127578" accel="2.1" decel="3.2279791039883126" emergencyDecel="6.239444487352425" minGap="4.976852990369788" color="#FFFF00" guiShape="passenger/sedan"/>
    <vType id="vtype-vehicle677" length="5.663374308290893" mass="1754.0561268600231" accel="2.1" decel="1.987440795974126" emergencyDecel="6.827132474770052" minGap="7.7426924325767015" color="#8A2BE2" guiShape="passenger/hatchback"/>
    <vType id="vtype-vehicle96" length="3.0543107281621564" mass="1379.9130972334028" accel="2.1" decel="3.120338895583636" emergencyDecel="5.50942866215432" minGap="9.710377317700361" color="#FFFF00" guiShape="passenger/sedan"/>
    <vType id="vtype-vehicle78" length="4.917393164632665" mass="1579.0428335135744" accel="3.7174019756923764" decel="2.1104968562255744" emergencyDecel="5.321442728041041" minGap="10.973956856396496" color="#FFFF00" guiShape="passenger/sedan"/>
    <vType id="vtype-vehicle719" length="6.65599892498118" mass="2202.361667928964" accel="2.1" decel="3.6707519410868112" emergencyDecel="5.917605895613496" minGap="4.632257633475873" color="#8A2BE2" guiShape="passenger/hatchback"/>
    <vType id="vtype-vehicle802" length="5.518895012691854" mass="2969.571972206386" accel="5.493982237887692" decel="3.4498315122539234" emergencyDecel="5.457441646566198" minGap="6.78748661726975" color="#DC143C" guiShape="delivery"/>
    <vType id="vtype-vehicle122" length="5.357303634211503" mass="1666.6216399533168" accel="5.329053630204505" decel="3.345368994087462" emergencyDecel="5.782389809435441" minGap="7.6058302620595715" color="#FFFF00" guiShape="passenger/sedan"/>
    <vType id="vtype-vehicle363" length="6.243214876195806" mass="1516.106614349735" accel="2.1" decel="3.8249403739941994" emergencyDecel="7.193643867541077" minGap="7.751894658327958" color="#00BFFF" guiShape="passenger/sedan"/>
    <vType id="vtype-vehicle253" length="4.3382826763598095" mass="1636.9300495549103" accel="5.904260877582374" decel="3.8317393866850864" emergencyDecel="5.81809523927237" minGap="6.864530361982701" color="#00BFFF" guiShape="passenger/sedan"/>
    <vType id="vtype-vehicle8" length="3.973307837369731" mass="1340.1797842531196" accel="6.458084429540401" decel="3.0881869704496037" emergencyDecel="5.662767802228135" minGap="9.27881780075915" color="#FFFF00" guiShape="passenger/sedan"/>
    <vType id="vtype-vehicle772" length="5.79976631188004" mass="2015.8268979212507" accel="3.813818007557096" decel="3.4538634909609893" emergencyDecel="6.488693582129995" minGap="6.299855905858047" color="#8A2BE2" guiShape="passenger/hatchback"/>
    <vType id="vtype-vehicle288" length="5.701690916072678" mass="1638.4990245683039" accel="2.1" decel="2.5850806427861817" emergencyDecel="2.8197365479327323" minGap="7.316998489954866" color="#00BFFF" guiShape="passenger/sedan"/>
    <vType id="vtype-vehicle727" length="4.630445786893256" mass="2151.1322196217193" accel="4.027840863186088" decel="3.5741545455400603" emergencyDecel="5.054051078223329" minGap="7.502627064989608" color="#8A2BE2" guiShape="passenger/hatchback"/>
    <vType id="vtype-vehicle495" length="4.514077349237544" mass="1816.4733801952902" accel="3.4730253220414964" decel="3.922036646645979" emergencyDecel="6.522898203193669" minGap="6.1553640603824284" color="#00BFFF" guiShape="passenger/sedan"/>
    <vType id="vtype-vehicle193" length="3.636792586366963" mass="1877.4192769585663" accel="3.8573112219947303" decel="3.3265055074369485" emergencyDecel="6.618030662853966" minGap="4.961100440329032" color="#00BFFF" guiShape="passenger/sedan"/>
    <vType id="vtype-vehicle198" length="4.222395720949878" mass="1908.2102266715776" accel="8.496750347859692" decel="3.919554465097261" emergencyDecel="6.180204403227206" minGap="7.312675228491366" color="#00BFFF" guiShape="passenger/sedan"/>
    <vType id="vtype-vehicle378" length="5.364550584912638" mass="1926.5329663481803" accel="3.4620045659591105" decel="4.102944780210228" emergencyDecel="5.8682581068873825" minGap="6.893230123648063" color="#00BFFF" guiShape="passenger/sedan"/>
    <vType id="vtype-vehicle73" length="4.484208358324642" mass="1791.2863054164086" accel="3.604963653604208" decel="4.010461236440095" emergencyDecel="7.154035094476697" minGap="5.508125798088701" color="#FFFF00" guiShape="passenger/sedan"/>
    <vType id="vtype-vehicle186" length="4.29125509967392" mass="1773.9691238826595" accel="3.649287594967057" decel="2.3371314090682147" emergencyDecel="6.224597649639406" minGap="6.997373472051394" color="#FFFF00" guiShape="passenger/sedan"/>
    <vType id="vtype-vehicle347" length="2.135587738011001" mass="1661.5870784761305" accel="2.4864338656977276" decel="2.801773977445592" emergencyDecel="6.752343121235369" minGap="6.885035159647679" color="#00BFFF" guiShape="passenger/sedan"/>
    <vType id="vtype-vehicle638" length="4.5898971977077245" mass="1964.3229174191729" accel="6.71978221088334" decel="3.863507350784049" emergencyDecel="5.818103359231243" minGap="9.236130002414487" color="#8A2BE2" guiShape="passenger/hatchback"/>
    <vType id="vtype-vehicle444" length="4.926257253977252" mass="1607.314074002829" accel="5.231293519431925" decel="2.9585116564262424" emergencyDecel="6.409573263140235" minGap="8.874248057065769" color="#00BFFF" guiShape="passenger/sedan"/>
    <vType id="vtype-vehicle155" length="4.657137285599625" mass="1702.2370866173699" accel="2.5501069024084564" decel="2.9359939932332577" emergencyDecel="7.643887661196177" minGap="8.376427722078951" color="#FFFF00" guiShape="passenger/sedan"/>
    <vType id="vtype-vehicle553" length="4.659646140122074" mass="2047.0911418683784" accel="2.1" decel="1.7097343030150816" emergencyDecel="5.595743501097043" minGap="5.95186135183687" color="#FF4500" guiShape="passenger/hatchback"/>
    <vType id="vtype-vehicle680" length="3.4086273430149605" mass="2261.150995148481" accel="2.1" decel="3.0095240138584622" emergencyDecel="6.413702657857108" minGap="4.7659116190726145" color="#8A2BE2" guiShape="passenger/hatchback"/>
    <vType id="vtype-vehicle599" length="5.967410727400304" mass="2147.698028572955" accel="4.225992759465249" decel="3.0078842857803343" emergencyDecel="5.105880448103846" minGap="8.380338095537084" color="#8A2BE2" guiShape="passenger/hatchback"/>