<?xml version="1.0" ?>
<routes>
    <vType id="vtype-vehicle0" length="4.136378602375262" mass="2036.379167103919" accel="5.145052164590416" decel="4.125118203764389" emergencyDecel="4.617259230788124" minGap="6.587182590266333" vClass="passenger" emissionClass="HBEFA4/PC_petrol_Euro-2" color="#3498DB" guiShape="passenger/sedan"/>
    <vType id="vtype-vehicle1" length="3.5856695463868307" mass="1538.9056483396412" accel="2.1" decel="3.5578184824632926" emergencyDecel="5.748979415147884" minGap="5.370701994656962" vClass="passenger" emissionClass="HBEFA4/PC_petrol_Euro-6ab" color="#3498DB" guiShape="passenger/sedan"/>
    <vType id="vtype-vehicle2" length="3.8560004264329666" mass="1853.3376060984665" accel="2.1" decel="2.588730715326885" emergencyDecel="7.009030932747677" minGap="6.563343836892387" vClass="passenger" emissionClass="HBEFA4/PC_diesel_Euro-6ab" color="#3498DB" guiShape="passenger/sedan"/>
    <vType id="vtype-vehicle3" length="2.6473707875194736" mass="1655.9028148147731" accel="2.83386857037995" decel="2.5374392987671595" emergencyDecel="5.156749796990159" minGap="8.725711243861957" vClass="passenger" emissionClass="HBEFA4/PC_diesel_Euro-6ab" color="#3498DB" guiShape="passenger/sedan"/>
    <vType id="vtype-vehicle4" length="5.027408620594614" mass="1383.710340031164" accel="2.1" decel="3.89383259111989" emergencyDecel="6.979686448334056" minGap="5.595346537775474" vClass="passenger" emissionClass="HBEFA4/PC_PHEV_petrol_Euro-6d_(El)" color="#3498DB" guiShape="passenger/sedan"/>
    <vType id="vtype-vehicle5" length="4.388983135740168" mass="1469.8047285757198" accel="4.276988956702186" decel="4.161646866882191" emergencyDecel="5.40768250501415" minGap="8.046907456844545" vClass="passenger" emissionClass="HBEFA4/PC_petrol_Euro-4" color="#3498DB" guiShape="passenger/sedan"/>
    <vType id="vtype-vehicle6" length="5.542170079896448" mass="1636.903546959105" accel="4.179337070852047" decel="3.329801281684368" emergencyDecel="5.594370218368151" minGap="9.976207826718099" vClass="passenger" emissionClass="HBEFA4/PC_diesel_Euro-4" color="#3498DB" guiShape="passenger/sedan"/>
    <vType id="vtype-vehicle7" length="4.733182219702375" mass="1340.0091068644258" accel="3.588174232239044" decel="4.2585275271330465" emergencyDecel="6.534845892602706" minGap="6.781532646816185" vClass="passenger" emissionClass="HBEFA4/PC_PHEV_petrol_Euro-6d_(El)" color="#3498DB" guiShape="passenger/sedan"/>
    <vType id="vtype-vehicle8" length="5.60942365594126" mass="1180.9089925785029" accel="2.1" decel="3.2568348948374957" emergencyDecel="6.069077769773315" minGap="9.42410440943743" vClass="passenger" emissionClass="HBEFA4/PC_diesel_Euro-1" color="#3498DB" guiShape="passenger/sedan"/>
    <vType id="vtype-vehicle9" length="4.861944401150133" mass="1621.6654486917182" accel="3.098782349512914" decel="4.376951532652605" emergencyDecel="4.546124553557393" minGap="6.6354141970060105" vClass="passenger" emissionClass="HBEFA4/PC_petrol_Euro-3" color="#3498DB" guiShape="passenger/sedan"/>
    <vType id="vtype-vehicle10" length="6.324213046395677" mass="1545.7633309302114" accel="7.435209693963915" decel="2.8632962664927377" emergencyDecel="4.4844682266826865" minGap="7.919873093753417" vClass="passenger" emissionClass="HBEFA4/PC_diesel_Euro-6ab" color="#3498DB" guiShape="passenger/sedan"/>
    <vType id="vtype-vehicle11" length="5.308756059100453" mass="1465.5508564773345" accel="2.1" decel="2.374419170427022" emergencyDecel="6.150163082576863" minGap="4.297558697229147" vClass="passenger" emissionClass="HBEFA4/PC_petrol_Euro-4" color="#3498DB" guiShape="passenger/sedan"/>
    <vType id="vtype-vehicle12" length="3.7520923068401624" mass="1543.537051414475" accel="2.1" decel="2.7691740184306575" emergencyDecel="4.755265846762421" minGap="4.1643821023664" vClass="passenger" emissionClass="HBEFA4/PC_diesel_Euro-5" color="#3498DB" guiShape="passenger/sedan"/>
    <vType id="vtype-vehicle13" length="4.114407279978419" mass="1603.0727930095682" accel="5.029388615293295" decel="2.8193429081973114" emergencyDecel="5.923472056006716" minGap="4.12391974946174" vClass="passenger" emissionClass="HBEFA4/PC_diesel_Euro-3" color="#3498DB" guiShape="passenger/sedan"/>
    <vType id="vtype-vehicle14" length="3.6630795530963534" mass="1425.6451153548896" accel="3.08400933367684" decel="4.060193095150486" emergencyDecel="5.924679168299448" minGap="7.399140873401719" vClass="passenger" emissionClass="HBEFA4/PC_petrol_Euro-3" color="#3498DB" guiShape="passenger/sedan"/>
    <vType id="vtype-vehicle15" length="3.674926195603731" mass="1616.6294242147533" accel="5.384810058985158" decel="0.6374259245423053" emergencyDecel="4.832858860673136" minGap="10.294147670781674" vClass="passenger" emissionClass="HBEFA4/PC_petrol_Euro-4" color="#3498DB" guiShape="passenger/sedan"/>
    <vType id="vtype-vehicle16" length="5.05718124699755" mass="1646.4892033156323" accel="3.9776081254337003" decel="4.378983638699109" emergencyDecel="4.811869357273934" minGap="6.25594372227151" vClass="passenger" emissionClass="HBEFA4/PC_diesel_1986-1988" color="#3498DB" guiShape="passenger/sedan"/>
    <vType id="vtype-vehicle17" length="5.520917722025379" mass="1638.4299216040356" accel="2.8174647269805346" decel="2.3910839898908796" emergencyDecel="5.2694639513663155" minGap="6.6642440356260275" vClass="passenger" emissionClass="HBEFA4/PC_diesel_Euro-3" color="#3498DB" guiShape="passenger/sedan"/>
    <vType id="vtype-vehicle18" length="5.614519314017128" mass="1948.7389276198303" accel="2.1" decel="4.031049503959059" emergencyDecel="5.397789397634055" minGap="6.910658186742646" vClass="passenger" emissionClass="HBEFA4/PC_petrol_PreEuro_3WCat_1987-90" color="#3498DB" guiShape="passenger/sedan"/>
    <vType id="vtype-vehicle19" length="4.026334271808038" mass="1521.2082073089678" accel="4.070904482772051" decel="3.3740216248418036" emergencyDecel="5.255696822859926" minGap="5.0423799391753334" vClass="passenger" emissionClass="HBEFA4/PC_petrol_PreEuro_3WCat_1987-90" color="#3498DB" guiShape="passenger/sedan"/>
    <vType id="vtype-vehicle20" length="4.6364939494584005" mass="1565.3518657665395" accel="2.1" decel="1.6727556963716712" emergencyDecel="4.848169203389668" minGap="6.6846755500704385" vClass="passenger" emissionClass="HBEFA4/PC_petrol_Euro-4" color="#3498DB" guiShape="passenger/sedan"/>
    <vType id="vtype-vehicle21" length="5.5055570757001515" mass="1522.2969863153705" accel="2.1" decel="2.212851782460122" emergencyDecel="6.409904189580234" minGap="5.783079946791305" vClass="passenger" emissionClass="HBEFA4/PC_diesel_Euro-4" color="#3498DB" guiShape="passenger/sedan"/>
    <vType id="vtype-vehicle22" length="3.816570948275939" mass="1744.8290785414897" accel="2.1" decel="0.901049881005199" emergencyDecel="6.017150530006981" minGap="7.2655649781612315" vClass="passenger" emissionClass="HBEFA4/PC_diesel_Euro-3" color="#3498DB" guiShape="passenger/sedan"/>
    <vType id="vtype-vehicle23" length="5.426390834903827" mass="1550.6844955429096" accel="6.729861672220847" decel="2.981669681929868" emergencyDecel="4.710114372512034" minGap="10.70549843414851" vClass="passenger" emissionClass="HBEFA4/PC_LPG_petrol_Euro-4_(LPG)" color="#3498DB" guiShape="passenger/sedan"/>
    <vType id="vtype-vehicle24" length="4.633299785285303" mass="1523.0061032829235" accel="2.1" decel="2.8505093935407184" emergencyDecel="5.052722250804456" minGap="9.650564912935812" vClass="passenger" emissionClass="HBEFA4/PC_petrol_Euro-6ab" color="#3498DB" guiShape="passenger/sedan"/>
    <vType id="vtype-vehicle25" length="2.888366970650046" mass="1718.1171378783763" accel="5.88623932835306" decel="3.6090197171664644" emergencyDecel="6.360422761313711" minGap="7.144317796463974" vClass="passenger" emissionClass="HBEFA4/PC_petrol_Euro-4" color="#3498DB" guiShape="passenger/sedan"/>
    <vType id="vtype-vehicle26" length="4.876495227860167" mass="1614.8615794231428" accel="2.1" decel="5.030495337762719" emergencyDecel="6.698286908066343" minGap="6.96137933910865" vClass="passenger" emissionClass="HBEFA4/PC_diesel_Euro-6ab" color="#3498DB" guiShape="passenger/sedan"/>
    <vType id="vtype-vehicle27" length="5.320053552820446" mass="1670.9426284732756" accel="2.1" decel="2.7318603683808615" emergencyDecel="7.225825289028286" minGap="8.102469807241455" vClass="passenger" emissionClass="HBEFA4/PC_diesel_Euro-6ab" color="#3498DB" guiShape="passenger/sedan"/>
    <vType id="vtype-vehicle28" length="3.603524230812045" mass="1721.261062022616" accel="2.1" decel="3.4951308995104453" emergencyDecel="5.865509480060494" minGap="4.339167791938435" vClass="passenger" emissionClass="HBEFA4/PC_diesel_Euro-5" color="#3498DB" guiShape="passenger/sedan"/>
    <vType id="vtype-vehicle29" length="3.41284358021239" mass="1710.453434251116" accel="2.2285465690628863" decel="2.0975335947181986" emergencyDecel="5.849593578941804" minGap="4.995843055002666" vClass="passenger" emissionClass="HBEFA4/PC_petrol_Euro-5" color="#3498DB" guiShape="passenger/sedan"/>
    <vType id="vtype-vehicle30" length="5.5040489734316" mass="1561.1921934532977" accel="3.676789688204469" decel="1.526172797626076" emergencyDecel="6.3371349904097665" minGap="10.726022148039675" vClass="passenger" emissionClass="HBEFA4/PC_diesel_Euro-3" color="#3498DB" guiShape="passenger/sedan"/>
    <vType id="vtype-vehicle31" length="2.5474266861738286" mass="1557.571809955422" accel="3.0678057419895026" decel="2.680367188909153" emergencyDecel="6.556152828353243" minGap="5.76354354845491" vClass="passenger" emissionClass="HBEFA4/PC_diesel_Euro-5" color="#3498DB" guiShape="passenger/sedan"/>
    <vType id="vtype-vehicle32" length="5.595741165862833" mass="1730.8709638283005" accel="3.549707824711507" decel="2.684455917693807" emergencyDecel="7.047143052083827" minGap="7.4127195082922155" vClass="passenger" emissionClass="HBEFA4/PC_CNG_petrol_Euro-4_(CNG)" color="#3498DB" guiShape="passenger/sedan"/>
    <vType id="vtype-vehicle33" length="3.322235745003323" mass="1606.139130411188" accel="2.1" decel="3.273084361574955" emergencyDecel="5.9650475643610195" minGap="4.709951494102199" vClass="passenger" emissionClass="HBEFA4/PC_diesel_Euro-6ab" color="#3498DB" guiShape="passenger/sedan"/>
    <vType id="vtype-vehicle34" length="4.313494427099034" mass="1597.3354394036126" accel="4.930211541218828" decel="3.149495317380439" emergencyDecel="3.859729403831576" minGap="8.807370493974537" vClass="passenger" emissionClass="HBEFA4/PC_PHEV_petrol_Euro-6d_(El)" color="#3498DB" guiShape="passenger/sedan"/>
    <vType id="vtype-vehicle35" length="3.2359681648011414" mass="1641.9186711561283" accel="3.4883400671674365" decel="1.7617785292524375" emergencyDecel="5.97808191874853" minGap="7.362289553184768" vClass="passenger" emissionClass="HBEFA4/PC_diesel_Euro-6ab" color="#3498DB" guiShape="passenger/sedan"/>
    <vType id="vtype-vehicle36" length="5.45406980572496" mass="1627.3655989743613" accel="3.1781235333887135" decel="3.6886577468247586" emergencyDecel="5.9302418980321905" minGap="11.400125570877908" vClass="passenger" emissionClass="HBEFA4/PC_LPG_petrol_Euro-4_(LPG)" color="#3498DB" guiShape="passenger/sedan"/>
    <vType id="vtype-vehicle37" length="4.187283017373799" mass="1343.613459667574" accel="3.811395476027375" decel="1.858356416976818" emergencyDecel="5.107242901979291" minGap="6.560562119543776" vClass="passenger" emissionClass="HBEFA4/PC_petrol_Euro-4" color="#3498DB" guiShape="passenger/sedan"/>
    <vType id="vtype-vehicle38" length="5.375236958882157" mass="1602.1484123442394" accel="2.816220819026975" decel="3.9082914268990194" emergencyDecel="5.276090084135945" minGap="8.342188022454215" vClass="passenger" emissionClass="HBEFA4/PC_petrol_Euro-6ab" color="#3498DB" guiShape="passenger/sedan"/>
    <vType id="vtype-vehicle39" length="4.337930657018497" mass="1627.4474553261052" accel="5.615052053921602" decel="2.1477797444922904" emergencyDecel="5.798556452943334" minGap="8.676552787644727" vClass="passenger" emissionClass="HBEFA4/PC_diesel_Euro-5" color="#3498DB" guiShape="passenger/sedan"/>
    <vType id="vtype-vehicle40" length="4.663390227358912" mass="1641.1941538674241" accel="2.1" decel="3.860217534394555" emergencyDecel="5.9514842654445435" minGap="6.672379111347592" vClass="passenger" emissionClass="HBEFA4/PC_petrol_Euro-6ab" color="#3498DB" guiShape="passenger/sedan"/>
    <vType id="vtype-vehicle41" length="5.018626014457898" mass="1748.5865302504162" accel="3.590518159306397" decel="1.7850517209901768" emergencyDecel="1.6241369322539603" minGap="11.387568976884097" vClass="passenger" emissionClass="HBEFA4/PC_diesel_Euro-5" color="#3498DB" guiShape="passenger/sedan"/>
    <vType id="vtype-vehicle42" length="4.8912931728847875" mass="1289.3201331564615" accel="5.39815122300371" decel="3.1984223174070783" emergencyDecel="6.538012091870163" minGap="8.566430108752863" vClass="passenger" emissionClass="HBEFA4/PC_PHEV_petrol_Euro-6d_(El)" color="#3498DB" guiShape="passenger/sedan"/>
    <vType id="vtype-vehicle43" length="2.952870279841913" mass="1652.163954528654" accel="2.1" decel="4.022984015920443" emergencyDecel="5.974220712622932" minGap="5.29358837053422" vClass="passenger" emissionClass="HBEFA4/PC_diesel_Euro-6ab" color="#3498DB" guiShape="passenger/sedan"/>
    <vType id="vtype-vehicle44" length="3.2543845195260266" mass="1805.9880761258007" accel="2.8890575047580533" decel="3.2171548319124645" emergencyDecel="5.843904056996849" minGap="5.124177472633095" vClass="passenger" emissionClass="HBEFA4/PC_petrol_Euro-5" color="#3498DB" guiShape="passenger/sedan"/>
    <vType id="vtype-vehicle45" length="5.5568393995308405" mass="1464.2717196748422" accel="2.1" decel="1.1830653762416847" emergencyDecel="5.7355774935017685" minGap="5.287774576773235" vClass="passenger" emissionClass="HBEFA4/PC_petrol_PreEuro_3WCat_1987-90" color="#3498DB" guiShape="passenger/sedan"/>
    <vType id="vtype-vehicle46" length="3.803230748028586" mass="1900.1762151885428" accel="2.1" decel="3.0994090227337114" emergencyDecel="4.916782948296694" minGap="4.107382452231759" vClass="passenger" emissionClass="HBEFA4/PC_petrol_Euro-6ab" color="#3498DB" guiShape="passenger/sedan"/>
    <vType id="vtype-vehicle47" length="2.3243015870123527" mass="1469.2422595563626" accel="2.1" decel="4.724438090836115" emergencyDecel="6.865611596443685" minGap="9.171084721220087" vClass="passenger" emissionClass="HBEFA4/PC_petrol_Euro-4" color="#3498DB" guiShape="passenger/sedan"/>
    <vType id="vtype-vehicle48" length="5.723203569068843" mass="1436.4848103242227" accel="3.6557413865741446" decel="2.2387504238780718" emergencyDecel="8.3256179663705" minGap="6.0066660334897035" vClass="passenger" emissionClass="HBEFA4/PC_diesel_Euro-6ab" color="#3498DB" guiShape="passenger/sedan"/>
    <vType id="vtype-vehicle49" length="4.684174138638085" mass="1519.6987332195959" accel="2.9909675965957416" decel="4.218787138786527" emergencyDecel="5.453962179197842" minGap="7.840392512721717" vClass="passenger" emissionClass="HBEFA4/PC_petrol_Euro-2" color="#3498DB" guiShape="passenger/sedan"/>
    <vType id="vtype-vehicle50" length="4.9066689145848725" mass="1629.1036259256168" accel="4.02878420067275" decel="4.268492573043682" emergencyDecel="6.165969595395918" minGap="8.862608543004631" vClass="passenger" emissionClass="HBEFA4/PC_petrol_Euro-3" color="#3498DB" guiShape="passenger/sedan"/>
    <vType id="vtype-vehicle51" length="5.838028943375058" mass="1592.6481876916052" accel="2.8106185994692843" decel="4.231563966775673" emergencyDecel="6.215299214585633" minGap="6.748014054735313" vClass="passenger" emissionClass="HBEFA4/PC_diesel_Euro-5" color="#3498DB" guiShape="passenger/sedan"/>
    <vType id="vtype-vehicle52" length="4.517436781234923" mass="1243.3121148258847" accel="2.1" decel="2.090978823931462" emergencyDecel="5.7071403602171245" minGap="6.054826335862582" vClass="passenger" emissionClass="HBEFA4/PC_diesel_Euro-5" color="#3498DB" guiShape="passenger/sedan"/>
    <vType id="vtype-vehicle53" length="4.2759330950494405" mass="1653.4648905501451" accel="6.260348916784994" decel="2.759265361188824" emergencyDecel="5.675798251731136" minGap="8.101379236681115" vClass="passenger" emissionClass="HBEFA4/PC_diesel_Euro-6ab" color="#3498DB" guiShape="passenger/sedan"/>
    <vType id="vtype-vehicle54" length="3.9646052119659765" mass="1312.368754068313" accel="3.622731975164374" decel="3.1515299847077087" emergencyDecel="6.986360378802441" minGap="6.411654607415834" vClass="passenger" emissionClass="HBEFA4/PC_petrol_PreEuro_3WCat_1987-90" color="#3498DB" guiShape="passenger/sedan"/>
    <vType id="vtype-vehicle55" length="6.655357092599145" mass="1725.7005815759078" accel="3.3628467998692755" decel="0.7064815276733625" emergencyDecel="4.9904809258853575" minGap="8.322140971927636" vClass="passenger" emissionClass="HBEFA4/PC_diesel_Euro-6ab" color="#3498DB" guiShape="passenger/sedan"/>
    <vType id="vtype-vehicle56" length="5.2457781093653635" mass="1760.4918178557743" accel="3.3853729131408232" decel="3.6655877165439392" emergencyDecel="4.538623604952698" minGap="3.1106769376432952" vClass="passenger" emissionClass="HBEFA4/PC_petrol_PreEuro_3WCat_1987-90" color="#3498DB" guiShape="passenger/sedan"/>
    <vType id="vtype-vehicle57" length="6.3328943569494065" mass="1622.505532275985" accel="4.934580334545102" decel="3.1537604766074923" emergencyDecel="6.40236908260953" minGap="6.537020659996528" vClass="passenger" emissionClass="HBEFA4/PC_LPG_petrol_Euro-4_(LPG)" color="#3498DB" guiShape="passenger/sedan"/>
    <vType id="vtype-vehicle58" length="2.8329436241769876" mass="1728.6769735618907" accel="4.844552848328663" decel="3.5139799731399037" emergencyDecel="4.838030843172693" minGap="6.861594489719493" vClass="passenger" emissionClass="HBEFA4/PC_diesel_Euro-6ab" color="#3498DB" guiShape="passenger/sedan"/>
    <vType id="vtype-vehicle59" length="2.837846602914458" mass="1497.6469227609207" accel="5.241047748957709" decel="4.549066287712814" emergencyDecel="6.858615480936489" minGap="9.750172116685638" vClass="passenger" emissionClass="HBEFA4/PC_diesel_Euro-6ab" color="#3498DB" guiShape="passenger/sedan"/>
    <vType id="vtype-vehicle60" length="4.711591724336803" mass="1589.57780849943" accel="3.578079255339283" decel="3.1977475742663746" emergencyDecel="6.42849425596527" minGap="10.098545080707027" vClass="passenger" emissionClass="HBEFA4/PC_petrol_Euro-5" color="#3498DB" guiShape="passenger/sedan"/>
    <vType id="vtype-vehicle61" length="3.7418829615628355" mass="1411.8460566732358" accel="2.1" decel="2.371215377793068" emergencyDecel="5.820507468144536" minGap="4.923053986288124" vClass="passenger" emissionClass="HBEFA4/PC_diesel_Euro-3" color="#3498DB" guiShape="passenger/sedan"/>
    <vType id="vtype-vehicle62" length="6.095134783774174" mass="1784.5757915298552" accel="3.499452978983773" decel="2.885483347186933" emergencyDecel="6.834892786514125" minGap="9.005419264569266" vClass="passenger" emissionClass="HBEFA4/PC_diesel_Euro-6ab" color="#3498DB" guiShape="passenger/sedan"/>
    <vType id="vtype-vehicle63" length="3.4547444184442524" mass="1546.4835148107877" accel="2.1" decel="2.66339097612949" emergencyDecel="5.386194410604238" minGap="11.456473845277714" vClass="passenger" emissionClass="HBEFA4/PC_petrol_Euro-4" color="#3498DB" guiShape="passenger/sedan"/>
    <vType id="vtype-vehicle64" length="5.2388780066544385" mass="1782.0937603134232" accel="5.470383458157993" decel="2.121351735120716" emergencyDecel="5.89609493222978" minGap="6.215013054632296" vClass="passenger" emissionClass="HBEFA4/PC_PHEV_petrol_Euro-6d_(El)" color="#3498DB" guiShape="passenger/sedan"/>
    <vType id="vtype-vehicle65" length="4.171736512060821" mass="1250.0761838058188" accel="4.582679789538141" decel="3.1081923183848184" emergencyDecel="4.990831974263533" minGap="6.652264910135281" vClass="passenger" emissionClass="HBEFA4/PC_petrol_Euro-4" color="#3498DB" guiShape="passenger/sedan"/>
    <vType id="vtype-vehicle66" length="4.63595795443995" mass="1474.5111254106682" accel="2.1" decel="4.106522257756394" emergencyDecel="6.682618968261259" minGap="7.91716481367568" vClass="passenger" emissionClass="HBEFA4/PC_PHEV_petrol_Euro-6d_(El)" color="#3498DB" guiShape="passenger/sedan"/>
    <vType id="vtype-vehicle67" length="3.7937860797886405" mass="1434.1040393464073" accel="3.5249411182557653" decel="3.260184543778477" emergencyDecel="6.139283596195313" minGap="5.037633032796777" vClass="passenger" emissionClass="HBEFA4/PC_diesel_Euro-4" color="#3498DB" guiShape="passenger/sedan"/>
    <vType id="vtype-vehicle68" length="4.599594471374037" mass="2009.0372110954745" accel="2.1" decel="4.381964276956546" emergencyDecel="7.682987701391632" minGap="7.556332222214014" vClass="passenger" emissionClass="HBEFA4/PC_CNG_petrol_Euro-4_(CNG)" color="#3498DB" guiShape="passenger/sedan"/>
    <vType id="vtype-vehicle69" length="4.8304689688181774" mass="1635.4575260171673" accel="3.871417094022057" decel="1.662640716986984" emergencyDecel="3.3174030172911193" minGap="4.770583245253433" vClass="passenger" emissionClass="HBEFA4/PC_petrol_Euro-6ab" color="#3498DB" guiShape="passenger/sedan"/>
    <vType id="vtype-vehicle70" length="6.172012684256021" mass="1591.8062232952236" accel="5.043357161634601" decel="1.8896408174264852" emergencyDecel="6.95674980760444" minGap="9.544150246635278" vClass="passenger" emissionClass="HBEFA4/PC_petrol_Euro-2" color="#3498DB" guiShape="passenger/sedan"/>
    <vType id="vtype-vehicle71" length="4.974288344964652" mass="1398.735155365329" accel="2.758340174925343" decel="2.957390708278243" emergencyDecel="5.689483054922534" minGap="7.661470140142628" vClass="passenger" emissionClass="HBEFA4/PC_petrol_Euro-1" color="#3498DB" guiShape="passenger/sedan"/>
    <vType id="vtype-vehicle72" length="5.345307454920234" mass="1780.4864974055804" accel="2.1" decel="2.462691733050301" emergencyDecel="5.203775124775678" minGap="3.868785449206141" vClass="passenger" emissionClass="HBEFA4/PC_diesel_Euro-5" color="#3498DB" guiShape="passenger/sedan"/>
    <vType id="vtype-vehicle73" length="6.024006417803452" mass="1580.2914879318791" accel="2.1" decel="3.776965076538424" emergencyDecel="6.910000973740937" minGap="5.394649476714012" vClass="passenger" emissionClass="HBEFA4/PC_diesel_Euro-4" color="#3498DB" guiShape="passenger/sedan"/>
    <vType id="vtype-vehicle74" length="3.647921339821173" mass="1600.1344096944397" accel="5.46391326419133" decel="2.0630462865159895" emergencyDecel="4.379963325446478" minGap="6.012935237430864" vClass="passenger" emissionClass="HBEFA4/PC_diesel_Euro-4" color="#3498DB" guiShape="passenger/sedan"/>
    <vType id="vtype-vehicle75" length="3.1465775357773778" mass="1464.152743431126" accel="2.1" decel="1.332568796798778" emergencyDecel="7.3446438060238215" minGap="9.03116248561478" vClass="passenger" emissionClass="HBEFA4/PC_diesel_Euro-6ab" color="#3498DB" guiShape="passenger/sedan"/>
    <vType id="vtype-vehicle76" length="4.636225932689258" mass="1356.0164331212543" accel="6.776047530330892" decel="1.4139834864856515" emergencyDecel="5.274974601510426" minGap="5.481440828361722" vClass="passenger" emissionClass="HBEFA4/PC_diesel_Euro-5" color="#3498DB" guiShape="passenger/sedan"/>
    <vType id="vtype-vehicle77" length="4.920842291493984" mass="1992.581857033745" accel="2.2116673569451626" decel="3.4949875427800645" emergencyDecel="6.0728539604702405" minGap="8.45520116684162" vClass="passenger" emissionClass="HBEFA4/PC_petrol_PreEuro_3WCat_1987-90" color="#3498DB" guiShape="passenger/sedan"/>
    <vType id="vtype-vehicle78" length="4.689413566486001" mass="1029.7007255810688" accel="4.136378607385418" decel="2.513752564607218" emergencyDecel="6.722067549710147" minGap="3.5261684891319063" vClass="passenger" emissionClass="HBEFA4/PC_diesel_Euro-6ab" color="#3498DB" guiShape="passenger/sedan"/>
    <vType id="vtype-vehicle79" length="5.421461946968226" mass="1568.3182637960958" accel="2.7505557181057796" decel="1.503325303896971" emergencyDecel="6.61449114592142" minGap="6.167376577972487" vClass="passenger" emissionClass="HBEFA4/PC_LPG_petrol_Euro-5_(LPG)" color="#3498DB" guiShape="passenger/sedan"/>
    <vType id="vtype-vehicle80" length="4.458354229651703" mass="1683.7621936054657" accel="2.1" decel="2.355128634921357" emergencyDecel="6.726688402631099" minGap="5.653540901988812" vClass="passenger" emissionClass="HBEFA4/PC_petrol_Euro-4" color="#3498DB" guiShape="passenger/sedan"/>
    <vType id="vtype-vehicle81" length="5.483303402871881" mass="1727.9539083979553" accel="5.074446815656268" decel="1.8515012655270713" emergencyDecel="3.295394457133704" minGap="7.534434546208389" vClass="passenger" emissionClass="HBEFA4/PC_LPG_petrol_Euro-5_(LPG)" color="#3498DB" guiShape="passenger/sedan"/>
    <vType id="vtype-vehicle82" length="2.2366050143782865" mass="1519.6112211155519" accel="2.1" decel="2.986431907296588" emergencyDecel="5.585786376650855" minGap="7.449860037091264" vClass="passenger" emissionClass="HBEFA4/PC_diesel_Euro-5" color="#3498DB" guiShape="passenger/sedan"/>
    <vType id="vtype-vehicle83" length="3.81972042782446" mass="1455.7803742959388" accel="6.82967085849387" decel="2.2417893499633124" emergencyDecel="7.895558659186417" minGap="7.108568920938177" vClass="passenger" emissionClass="HBEFA4/PC_diesel_Euro-4" color="#3498DB" guiShape="passenger/sedan"/>
    <vType id="vtype-vehicle84" length="5.690491147892252" mass="1640.017100670105" accel="2.1" decel="2.299261607892286" emergencyDecel="4.971985717072829" minGap="7.475306945922384" vClass="passenger" emissionClass="HBEFA4/PC_diesel_Euro-4" color="#3498DB" guiShape="passenger/sedan"/>
    <vType id="vtype-vehicle85" length="2.8291421979912563" mass="1628.5664734041145" accel="3.438096039094329" decel="2.724455352420293" emergencyDecel="3.337832464927086" minGap="6.542058825943136" vClass="passenger" emissionClass="HBEFA4/PC_diesel_Euro-6ab" color="#3498DB" guiShape="passenger/sedan"/>
    <vType id="vtype-vehicle86" length="5.1683986736789" mass="1882.369641059207" accel="3.7774468753857526" decel="1.1351667481564778" emergencyDecel="6.468886175170384" minGap="11.143203871148174" vClass="passenger" emissionClass="HBEFA4/PC_petrol_Euro-6ab" color="#3498DB" guiShape="passenger/sedan"/>
    <vType id="vtype-vehicle87" length="5.823822762853634" mass="1576.104816308597" accel="2.1" decel="2.809338870254575" emergencyDecel="8.724714010057525" minGap="6.8136530675289535" vClass="passenger" emissionClass="HBEFA4/PC_petrol_Euro-6ab" color="#3498DB" guiShape="passenger/sedan"/>
    <vType id="vtype-vehicle88" length="3.9012369995117835" mass="1422.0282163677389" accel="7.3812584872298075" decel="3.1481507015347825" emergencyDecel="5.724078321922855" minGap="10.660187791851996" vClass="passenger" emissionClass="HBEFA4/PC_diesel_Euro-6ab" color="#3498DB" guiShape="passenger/sedan"/>
    <vType id="vtype-vehicle89" length="4.007568453642082" mass="1640.2920667315727" accel="2.263998848253145" decel="1.4939589845741816" emergencyDecel="7.5276817527977755" minGap="5.538218599115226" vClass="passenger" emissionClass="HBEFA4/PC_diesel_Euro-1" color="#3498DB" guiShape="passenger/sedan"/>
    <vType id="vtype-vehicle90" length="5.885970397465793" mass="2111.43861786458" accel="2.1" decel="4.034457094356199" emergencyDecel="5.152344165331571" minGap="5.112086113546475" vClass="passenger" emissionClass="HBEFA4/PC_petrol_Euro-4" color="#3498DB" guiShape="passenger/sedan"/>
    <vType id="vtype-vehicle91" length="3.1806396739226583" mass="1547.5047592758467" accel="3.915684834294587" decel="3.492173817133494" emergencyDecel="6.200064741100612" minGap="5.010722408582151" vClass="passenger" emissionClass="HBEFA4/PC_petrol_Euro-4" color="#3498DB" guiShape="passenger/sedan"/>
    <vType id="vtype-vehicle92" length="3.9058103197678924" mass="1476.442979930342" accel="3.7216609117572252" decel="2.957453351209779" emergencyDecel="7.777281557669191" minGap="2.8896908290631442" vClass="passenger" emissionClass="HBEFA4/PC_diesel_Euro-4" color="#3498DB" guiShape="passenger/sedan"/>
    <vType id="vtype-vehicle93" length="5.4476050855247875" mass="1865.348590981987" accel="2.1" decel="3.782843651552464" emergencyDecel="8.336781304540263" minGap="4.731404358047433" vClass="passenger" emissionClass="HBEFA4/PC_diesel_Euro-4" color="#3498DB" guiShape="passenger/sedan"/>
    <vType id="vtype-vehicle94" length="3.687110943895633" mass="1315.898209384369" accel="2.1" decel="3.589066687889054" emergencyDecel="7.4987164197519025" minGap="6.083963131543274" vClass="passenger" emissionClass="HBEFA4/PC_petrol_Euro-4" color="#3498DB" guiShape="passenger/sedan"/>
    <vType id="vtype-vehicle95" length="5.001759054485222" mass="1802.5487794417259" accel="3.915036646729034" decel="4.021935155722607" emergencyDecel="7.534657585899964" minGap="5.615002247364453" vClass="passenger" emissionClass="HBEFA4/PC_petrol_Euro-6ab" color="#3498DB" guiShape="passenger/sedan"/>
    <vType id="vtype-vehicle96" length="3.568070638082413" mass="1649.8524433887997" accel="2.1" decel="3.8850975463277457" emergencyDecel="6.479907599208337" minGap="9.091766087091036" vClass="passenger" emissionClass="HBEFA4/PC_diesel_Euro-3" color="#3498DB" guiShape="passenger/sedan"/>
    <vType id="vtype-vehicle97" length="4.295408951973588" mass="1609.495365786573" accel="2.1" decel="3.528389650532568" emergencyDecel="5.721408669926933" minGap="3.8936263315561863" vClass="passenger" emissionClass="HBEFA4/PC_diesel_1986-1988" color="#3498DB" guiShape="passenger/sedan"/>
    <vType id="vtype-vehicle98" length="3.382621181057634" mass="1519.205545370216" accel="2.5704495877754954" decel="5.4513228778736575" emergencyDecel="6.210396902907313" minGap="7.880784230489034" vClass="passenger" emissionClass="HBEFA4/PC_petrol_Euro-6ab" color="#3498DB" guiShape="passenger/sedan"/>