<?xml version="1.0" ?>
<routes>
    <vType id="vtype-vehicle0" length="4.336176649401" mass="1435.3243621235263" accel="2.838591730430138" decel="4.2274285061273895" emergencyDecel="10.397317353530212" minGap="6.030011998858422" vClass="passenger" emissionClass="HBEFA4/PC_petrol_Euro-4" color="#3498DB" guiShape="passenger/sedan"/>
    <vType id="vtype-vehicle1" length="3.738811242486402" mass="1468.9862768185722" accel="2.1" decel="2.0124736604814775" emergencyDecel="11.094232334967828" minGap="6.9632290432130155" vClass="passenger" emissionClass="HBEFA4/PC_petrol_Euro-4" color="#3498DB" guiShape="passenger/sedan"/>
    <vType id="vtype-vehicle2" length="3.1573282156258147" mass="1561.0471524502805" accel="4.080060388479899" decel="2.278689772905934" emergencyDecel="8.833819310148932" minGap="6.316458990174821" vClass="passenger" emissionClass="HBEFA4/PC_LPG_petrol_Euro-4_(LPG)" color="#3498DB" guiShape="passenger/sedan"/>
    <vType id="vtype-vehicle3" length="5.1591445272064655" mass="1823.741757346056" accel="4.102231689240973" decel="4.033447333881159" emergencyDecel="10.604188912113921" minGap="7.3983479986367495" vClass="passenger" emissionClass="HBEFA4/PC_petrol_Euro-4" color="#3498DB" guiShape="passenger/sedan"/>
    <vType id="vtype-vehicle4" length="4.064643480582745" mass="1589.5370697350245" accel="3.0642101975680283" decel="3.359848605823711" emergencyDecel="9.053819126594286" minGap="5.974500424037414" vClass="passenger" emissionClass="HBEFA4/PC_diesel_Euro-6ab" color="#3498DB" guiShape="passenger/sedan"/>
    <vType id="vtype-vehicle5" length="4.111662515310099" mass="1409.8788563623216" accel="5.1678691049036765" decel="4.490336762099007" emergencyDecel="10.09686734890283" minGap="10.22800693016929" vClass="passenger" emissionClass="HBEFA4/PC_diesel_Euro-5" color="#3498DB" guiShape="passenger/sedan"/>
    <vType id="vtype-vehicle6" length="2.967350992986927" mass="1287.277222259156" accel="2.1" decel="3.822263034330303" emergencyDecel="10.197494735241818" minGap="6.953169945838226" vClass="passenger" emissionClass="HBEFA4/PC_diesel_Euro-5" color="#3498DB" guiShape="passenger/sedan"/>
    <vType id="vtype-vehicle7" length="5.391528286129147" mass="1961.0215233645479" accel="2.1" decel="2.133600585459007" emergencyDecel="8.733317403327105" minGap="4.569297720272201" vClass="passenger" emissionClass="HBEFA4/PC_petrol_Euro-6ab" color="#3498DB" guiShape="passenger/sedan"/>
    <vType id="vtype-vehicle8" length="5.564670778953138" mass="1769.4868219028128" accel="4.2047213850636505" decel="4.474003822015465" emergencyDecel="10.021020883875421" minGap="2.7869162058992227" vClass="passenger" emissionClass="HBEFA4/PC_petrol_Euro-5" color="#3498DB" guiShape="passenger/sedan"/>
    <vType id="vtype-vehicle9" length="6.338951650065181" mass="1588.492923488868" accel="5.3415400482339646" decel="3.9719160858506735" emergencyDecel="10.964312784288627" minGap="9.74793885141657" vClass="passenger" emissionClass="HBEFA4/PC_diesel_Euro-5" color="#3498DB" guiShape="passenger/sedan"/>
    <vType id="vtype-vehicle10" length="5.922008633054424" mass="1780.7217720941935" accel="2.190380171944516" decel="3.2873742344688246" emergencyDecel="9.130100039103555" minGap="6.251043031833696" vClass="passenger" emissionClass="HBEFA4/PC_petrol_Euro-2" color="#3498DB" guiShape="passenger/sedan"/>
    <vType id="vtype-vehicle11" length="4.8736610919811" mass="1674.5113107627926" accel="2.1" decel="4.844289921556022" emergencyDecel="10.747880897188924" minGap="8.092712551927004" vClass="passenger" emissionClass="HBEFA4/PC_petrol_PreEuro_3WCat_1987-90" color="#3498DB" guiShape="passenger/sedan"/>
    <vType id="vtype-vehicle12" length="5.0486649910547365" mass="2117.1281131942437" accel="2.1" decel="4.6613848902320125" emergencyDecel="11.246170744176686" minGap="7.783118595296617" vClass="passenger" emissionClass="HBEFA4/PC_petrol_Euro-2" color="#3498DB" guiShape="passenger/sedan"/>
    <vType id="vtype-vehicle13" length="3.6366609856814955" mass="1650.9196464793292" accel="4.032182333494685" decel="3.863146769965265" emergencyDecel="9.339903414168544" minGap="3.8380683994056763" vClass="passenger" emissionClass="HBEFA4/PC_petrol_Euro-5" color="#3498DB" guiShape="passenger/sedan"/>
    <vType id="vtype-vehicle14" length="3.333181622551276" mass="1562.2730984178932" accel="2.3843274363697136" decel="3.8006651972444607" emergencyDecel="10.429325651811192" minGap="10.255471060457435" vClass="passenger" emissionClass="HBEFA4/PC_diesel_Euro-6ab" color="#3498DB" guiShape="passenger/sedan"/>
    <vType id="vtype-vehicle15" length="4.592605050938657" mass="1451.6251544083086" accel="2.1" decel="4.842514746091437" emergencyDecel="9.845489105127433" minGap="7.78697204999446" vClass="passenger" emissionClass="HBEFA4/PC_petrol_PreEuro_3WCat_1987-90" color="#3498DB" guiShape="passenger/sedan"/>
    <vType id="vtype-vehicle16" length="4.11305537061878" mass="1466.5731612479588" accel="2.1" decel="3.4087016982314706" emergencyDecel="9.96042258473748" minGap="8.10874958761164" vClass="passenger" emissionClass="HBEFA4/PC_petrol_Euro-6ab" color="#3498DB" guiShape="passenger/sedan"/>
    <vType id="vtype-vehicle17" length="5.090738753639395" mass="1683.0436567603936" accel="2.4916726433619205" decel="4.402496708456473" emergencyDecel="10.3552274056102" minGap="7.706023362043903" vClass="passenger" emissionClass="HBEFA4/PC_petrol_Euro-2" color="#3498DB" guiShape="passenger/sedan"/>
    <vType id="vtype-vehicle18" length="4.61059649422271" mass="1518.1864143659643" accel="2.1" decel="4.217319094132476" emergencyDecel="11.535420597718097" minGap="9.512820560482188" vClass="passenger" emissionClass="HBEFA4/PC_LPG_petrol_Euro-4_(LPG)" color="#3498DB" guiShape="passenger/sedan"/>
    <vType id="vtype-vehicle19" length="5.5001962525888715" mass="1444.5364157733295" accel="3.3591097010170747" decel="2.7751094617006307" emergencyDecel="10.613926388526636" minGap="8.263983800157671" vClass="passenger" emissionClass="HBEFA4/PC_CNG_petrol_Euro-5_(CNG)" color="#3498DB" guiShape="passenger/sedan"/>
    <vType id="vtype-vehicle20" length="5.155416790168548" mass="1871.713909413835" accel="4.9504928674528665" decel="4.793249672920934" emergencyDecel="10.503947557934943" minGap="3.1234513915643287" vClass="passenger" emissionClass="HBEFA4/PC_diesel_Euro-6ab" color="#3498DB" guiShape="passenger/sedan"/>
    <vType id="vtype-vehicle21" length="4.920763296817013" mass="1602.4955736744603" accel="4.521514173741482" decel="4.890122782913914" emergencyDecel="9.741925939398845" minGap="7.988619748200865" vClass="passenger" emissionClass="HBEFA4/PC_petrol_Euro-2" color="#3498DB" guiShape="passenger/sedan"/>
    <vType id="vtype-vehicle22" length="4.054039665378836" mass="1799.0992132689337" accel="2.324884764748461" decel="3.1710070134708004" emergencyDecel="10.679754279729668" minGap="8.32178604072377" vClass="passenger" emissionClass="HBEFA4/PC_diesel_Euro-3" color="#3498DB" guiShape="passenger/sedan"/>
    <vType id="vtype-vehicle23" length="4.089746954875997" mass="1618.4437198589121" accel="2.1" decel="5.318492708748267" emergencyDecel="10.9696075216241" minGap="10.342792414519842" vClass="passenger" emissionClass="HBEFA4/PC_diesel_Euro-5" color="#3498DB" guiShape="passenger/sedan"/>
    <vType id="vtype-vehicle24" length="3.103588468190054" mass="1216.2275351218523" accel="5.115653217023819" decel="3.0853481883622775" emergencyDecel="9.203508157961384" minGap="7.994060384382305" vClass="passenger" emissionClass="HBEFA4/PC_petrol_Euro-2" color="#3498DB" guiShape="passenger/sedan"/>
    <vType id="vtype-vehicle25" length="4.598816959811842" mass="1693.4889472609302" accel="5.645538051895262" decel="3.672832541992717" emergencyDecel="9.952803794726405" minGap="7.098711360483622" vClass="passenger" emissionClass="HBEFA4/PC_diesel_Euro-6ab" color="#3498DB" guiShape="passenger/sedan"/>
    <vType id="vtype-vehicle26" length="5.876359517766737" mass="1593.4692997198842" accel="2.1" decel="4.146071282701301" emergencyDecel="10.626862972575672" minGap="5.936815366826786" vClass="passenger" emissionClass="HBEFA4/PC_diesel_Euro-6ab" color="#3498DB" guiShape="passenger/sedan"/>
    <vType id="vtype-vehicle27" length="6.1987843366937" mass="1520.772768794365" accel="2.9119066698254352" decel="2.824832691303684" emergencyDecel="10.830487520074339" minGap="8.544617379708784" vClass="passenger" emissionClass="HBEFA4/PC_CNG_petrol_Euro-6_(CNG)" color="#3498DB" guiShape="passenger/sedan"/>
    <vType id="vtype-vehicle28" length="4.664958637810862" mass="1238.95850845639" accel="2.9386708140778333" decel="2.205222937647201" emergencyDecel="9.770336302072769" minGap="4.014908123975964" vClass="passenger" emissionClass="HBEFA4/PC_petrol_Euro-6ab" color="#3498DB" guiShape="passenger/sedan"/>
    <vType id="vtype-vehicle29" length="3.5873841240878024" mass="1451.794205459437" accel="2.805438928622913" decel="4.126626235992285" emergencyDecel="9.351736778317678" minGap="6.672238918014727" vClass="passenger" emissionClass="HBEFA4/PC_petrol_Euro-6ab" color="#3498DB" guiShape="passenger/sedan"/>
    <vType id="vtype-vehicle30" length="3.696784369481275" mass="1773.6902120457273" accel="2.524400128758467" decel="4.628120633628561" emergencyDecel="9.241710684875216" minGap="7.5392765770476275" vClass="passenger" emissionClass="HBEFA4/PC_diesel_Euro-3" color="#3498DB" guiShape="passenger/sedan"/>
    <vType id="vtype-vehicle31" length="6.468154025674284" mass="1479.063587674491" accel="3.90855530392236" decel="4.510696448285734" emergencyDecel="9.141279534422722" minGap="9.62452268919613" vClass="passenger" emissionClass="HBEFA4/PC_diesel_Euro-6ab" color="#3498DB" guiShape="passenger/sedan"/>
    <vType id="vtype-vehicle32" length="3.0827522516778716" mass="1707.7709337335027" accel="2.1" decel="2" emergencyDecel="9.887979631119348" minGap="6.349622803975272" vClass="passenger" emissionClass="HBEFA4/PC_diesel_Euro-4" color="#3498DB" guiShape="passenger/sedan"/>
    <vType id="vtype-vehicle33" length="2.724653691443862" mass="1981.8173090231849" accel="9.506556932402443" decel="4.094746285937237" emergencyDecel="11.230857221559743" minGap="5.487268950138142" vClass="passenger" emissionClass="HBEFA4/PC_petrol_Euro-4" color="#3498DB" guiShape="passenger/sedan"/>
    <vType id="vtype-vehicle34" length="4.678373875631213" mass="1629.685746008047" accel="2.1" decel="3.3692119742987097" emergencyDecel="11.185569203592864" minGap="7.494451765613539" vClass="passenger" emissionClass="HBEFA4/PC_petrol_Euro-4" color="#3498DB" guiShape="passenger/sedan"/>
    <vType id="vtype-vehicle35" length="5.913459510023315" mass="1617.8671849691643" accel="2.1" decel="3.8206287664608234" emergencyDecel="9.425092034800976" minGap="5.124822328195471" vClass="passenger" emissionClass="HBEFA4/PC_petrol_Euro-5" color="#3498DB" guiShape="passenger/sedan"/>
    <vType id="vtype-vehicle36" length="4.576676869127223" mass="1569.9740419111436" accel="2.1" decel="4.177852348963818" emergencyDecel="10.9980443021994" minGap="6.580401797023371" vClass="passenger" emissionClass="HBEFA4/PC_CNG_petrol_Euro-5_(CNG)" color="#3498DB" guiShape="passenger/sedan"/>
    <vType id="vtype-vehicle37" length="4.220382383649453" mass="1517.4405794225422" accel="2.1" decel="3.4774656239108124" emergencyDecel="9.20816513685673" minGap="8.407423876477214" vClass="passenger" emissionClass="HBEFA4/PC_LPG_petrol_Euro-4_(LPG)" color="#3498DB" guiShape="passenger/sedan"/>
    <vType id="vtype-vehicle38" length="5.152220686378886" mass="1668.5201931570634" accel="4.852637025696036" decel="3.1014691994217753" emergencyDecel="9.254434407310216" minGap="5.13749734109856" vClass="passenger" emissionClass="HBEFA4/PC_CNG_petrol_Euro-4_(CNG)" color="#3498DB" guiShape="passenger/sedan"/>
    <vType id="vtype-vehicle39" length="5.780333931967382" mass="1613.7874263550693" accel="5.761184708750929" decel="3.9207565680655074" emergencyDecel="9.885608331026061" minGap="3.908622004652441" vClass="passenger" emissionClass="HBEFA4/PC_diesel_Euro-4" color="#3498DB" guiShape="passenger/sedan"/>
    <vType id="vtype-vehicle40" length="3.945018982836636" mass="1685.5085941694285" accel="5.124534679409777" decel="4.5420278276225785" emergencyDecel="11.536024637305253" minGap="6.1949381255966705" vClass="passenger" emissionClass="HBEFA4/PC_LPG_petrol_Euro-5_(LPG)" color="#3498DB" guiShape="passenger/sedan"/>
    <vType id="vtype-vehicle41" length="3.544770785949317" mass="1984.9529143190132" accel="2.1" decel="2" emergencyDecel="9.599981436239107" minGap="8.785350375733564" vClass="passenger" emissionClass="HBEFA4/PC_LPG_petrol_Euro-6_(LPG)" color="#3498DB" guiShape="passenger/sedan"/>
    <vType id="vtype-vehicle42" length="5.011567883322077" mass="1762.3497524681309" accel="4.40272693023926" decel="4.035396285815938" emergencyDecel="9.966885437116185" minGap="4.748812363007978" vClass="passenger" emissionClass="HBEFA4/PC_petrol_Euro-3" color="#3498DB" guiShape="passenger/sedan"/>
    <vType id="vtype-vehicle43" length="4.1694951429914635" mass="1630.8312041884915" accel="3.039231038650932" decel="3.5258765373984753" emergencyDecel="9.321127135389776" minGap="9.494323052920958" vClass="passenger" emissionClass="HBEFA4/PC_LPG_petrol_Euro-6_(LPG)" color="#3498DB" guiShape="passenger/sedan"/>
    <vType id="vtype-vehicle44" length="5.072625996137714" mass="1443.748880346741" accel="2.8930141627779133" decel="3.4812156188889958" emergencyDecel="10.273567538700558" minGap="9.870894027636407" vClass="passenger" emissionClass="HBEFA4/PC_diesel_Euro-5" color="#3498DB" guiShape="passenger/sedan"/>
    <vType id="vtype-vehicle45" length="4.086500750460333" mass="1817.4706698876591" accel="4.756047838798169" decel="4.846765025146567" emergencyDecel="8.764915649699118" minGap="5.141745940760113" vClass="passenger" emissionClass="HBEFA4/PC_CNG_petrol_Euro-4_(CNG)" color="#3498DB" guiShape="passenger/sedan"/>
    <vType id="vtype-vehicle46" length="3.282107088124971" mass="1515.6913290203906" accel="2.1" decel="2.736330773230097" emergencyDecel="8.700317618544746" minGap="9.21906534102581" vClass="passenger" emissionClass="HBEFA4/PC_diesel_Euro-5" color="#3498DB" guiShape="passenger/sedan"/>
    <vType id="vtype-vehicle47" length="5.036879813979492" mass="1847.4610384346106" accel="2.1" decel="3.834454128646875" emergencyDecel="8.203830465443028" minGap="7.3317969135948164" vClass="passenger" emissionClass="HBEFA4/PC_petrol_Euro-2" color="#3498DB" guiShape="passenger/sedan"/>
    <vType id="vtype-vehicle48" length="4.9653276784607705" mass="1744.2475884629112" accel="2.1" decel="5.075001780364623" emergencyDecel="9.746043841422756" minGap="6.5332241594870215" vClass="passenger" emissionClass="HBEFA4/PC_diesel_Euro-6ab" color="#3498DB" guiShape="passenger/sedan"/>
    <vType id="vtype-vehicle49" length="3.8620770418085724" mass="1765.3381802854524" accel="5.537134067630853" decel="6.105798468554576" emergencyDecel="10.204233252393921" minGap="8.042032239122658" vClass="passenger" emissionClass="HBEFA4/PC_diesel_Euro-3" color="#3498DB" guiShape="passenger/sedan"/>
    <vType id="vtype-vehicle50" length="4.128945433004715" mass="1800.3364821766081" accel="4.28240570951552" decel="3.3688154425564383" emergencyDecel="9.808357083926255" minGap="7.924372495817089" vClass="passenger" emissionClass="HBEFA4/PC_diesel_Euro-4" color="#3498DB" guiShape="passenger/sedan"/>
    <vType id="vtype-vehicle51" length="4.508976833210125" mass="1747.1173128336675" accel="2.1" decel="5.189287033794039" emergencyDecel="9.933552677088413" minGap="11.00771104476684" vClass="passenger" emissionClass="HBEFA4/PC_petrol_Euro-6ab" color="#3498DB" guiShape="passenger/sedan"/>
    <vType id="vtype-vehicle52" length="3.971879255065647" mass="1612.0975994219145" accel="5.3011070767964235" decel="4.350158012333883" emergencyDecel="8.711713127006727" minGap="4.694833672531682" vClass="passenger" emissionClass="HBEFA4/PC_petrol_Euro-4" color="#3498DB" guiShape="passenger/sedan"/>
    <vType id="vtype-vehicle53" length="5.490386311462174" mass="1912.9048305728704" accel="2.989642385245298" decel="2.9556107304757893" emergencyDecel="10.469192279047606" minGap="8.823790587884165" vClass="passenger" emissionClass="HBEFA4/PC_diesel_Euro-5" color="#3498DB" guiShape="passenger/sedan"/>
    <vType id="vtype-vehicle54" length="5.060304505623023" mass="1826.7260636130754" accel="2.7871749396403853" decel="3.9654425342615216" emergencyDecel="9.443127767239277" minGap="6.633131110346493" vClass="passenger" emissionClass="HBEFA4/PC_diesel_Euro-6ab" color="#3498DB" guiShape="passenger/sedan"/>
    <vType id="vtype-vehicle55" length="2.5134140686078017" mass="1463.5027773265217" accel="4.476995693640477" decel="3.7859318239653503" emergencyDecel="10.093882244156902" minGap="6.659567564144892" vClass="passenger" emissionClass="HBEFA4/PC_LPG_petrol_Euro-6_(LPG)" color="#3498DB" guiShape="passenger/sedan"/>
    <vType id="vtype-vehicle56" length="5.854024433464291" mass="1642.122688845424" accel="2.8253249950251167" decel="4.4044352223419025" emergencyDecel="9.381743568896429" minGap="5.432048169936418" vClass="passenger" emissionClass="HBEFA4/PC_petrol_Euro-2" color="#3498DB" guiShape="passenger/sedan"/>
    <vType id="vtype-vehicle57" length="4.278769775949412" mass="1677.916794191661" accel="3.833212289755225" decel="2.9722063192578725" emergencyDecel="9.42321433043997" minGap="7.543285903030183" vClass="passenger" emissionClass="HBEFA4/PC_petrol_Euro-6ab" color="#3498DB" guiShape="passenger/sedan"/>
    <vType id="vtype-vehicle58" length="4.448396733069137" mass="1709.2283944444916" accel="3.8842023327004513" decel="2.9871708156974996" emergencyDecel="7.622559762493459" minGap="3.4548933941788706" vClass="passenger" emissionClass="HBEFA4/PC_diesel_Euro-5" color="#3498DB" guiShape="passenger/sedan"/>
    <vType id="vtype-vehicle59" length="5.383071800905556" mass="1367.973501935834" accel="2.721485774906423" decel="3.5771989274599263" emergencyDecel="12.71334841332284" minGap="11.358797003596607" vClass="passenger" emissionClass="HBEFA4/PC_diesel_Euro-3" color="#3498DB" guiShape="passenger/sedan"/>
    <vType id="vtype-vehicle60" length="4.700056471271276" mass="1728.2471457243923" accel="6.102339693810519" decel="3.6029283841245414" emergencyDecel="9.703575211845399" minGap="6.180301909955333" vClass="passenger" emissionClass="HBEFA4/PC_petrol_Euro-5" color="#3498DB" guiShape="passenger/sedan"/>
    <vType id="vtype-vehicle61" length="5.016438567597065" mass="1709.9521774289403" accel="2.1" decel="4.3699789032943315" emergencyDecel="9.730532674915262" minGap="6.115874464281846" vClass="passenger" emissionClass="HBEFA4/PC_diesel_Euro-6ab" color="#3498DB" guiShape="passenger/sedan"/>
    <vType id="vtype-vehicle62" length="3.6168979867805087" mass="1596.7538635709268" accel="2.1" decel="3.59456143190144" emergencyDecel="9.89802280291086" minGap="6.597575075105057" vClass="passenger" emissionClass="HBEFA4/PC_LPG_petrol_Euro-4_(LPG)" color="#3498DB" guiShape="passenger/sedan"/>
    <vType id="vtype-vehicle63" length="4.314570052917228" mass="1457.3242105025201" accel="2.459108836774942" decel="3.1078261500531905" emergencyDecel="10.715299177749525" minGap="8.179945493173635" vClass="passenger" emissionClass="HBEFA4/PC_diesel_Euro-4" color="#3498DB" guiShape="passenger/sedan"/>
    <vType id="vtype-vehicle64" length="3.7488483074645043" mass="1794.6214518668244" accel="2.1" decel="5.689618466724507" emergencyDecel="10.04174128486756" minGap="11.313479261851715" vClass="passenger" emissionClass="HBEFA4/PC_petrol_Euro-4" color="#3498DB" guiShape="passenger/sedan"/>
    <vType id="vtype-vehicle65" length="5.476397080291608" mass="1908.1942143912652" accel="4.246331750127089" decel="3.9980973425471835" emergencyDecel="10.063593749021665" minGap="5.624666157342096" vClass="passenger" emissionClass="HBEFA4/PC_diesel_Euro-4" color="#3498DB" guiShape="passenger/sedan"/>
    <vType id="vtype-vehicle66" length="4.022522746285214" mass="1814.7780840094103" accel="2.1" decel="3.33706400329185" emergencyDecel="9.160749170403957" minGap="6.713133016477502" vClass="passenger" emissionClass="HBEFA4/PC_diesel_Euro-6ab" color="#3498DB" guiShape="passenger/sedan"/>
    <vType id="vtype-vehicle67" length="5.115585207871165" mass="1665.7632734835818" accel="3.820994260077964" decel="3.8824329467970125" emergencyDecel="9.485797387318614" minGap="6.90583919711304" vClass="passenger" emissionClass="HBEFA4/PC_petrol_Euro-4" color="#3498DB" guiShape="passenger/sedan"/>
    <vType id="vtype-vehicle68" length="6.543313235489165" mass="1640.5615384353478" accel="3.9292368971150227" decel="4.192423752241665" emergencyDecel="10.790879811002693" minGap="8.224346105368177" vClass="passenger" emissionClass="HBEFA4/PC_petrol_Euro-4" color="#3498DB" guiShape="passenger/sedan"/>
    <vType id="vtype-vehicle69" length="5.7722827254970195" mass="1535.9778555706623" accel="3.6015951453491546" decel="4.363732814663759" emergencyDecel="9.217588649451784" minGap="7.600613270039947" vClass="passenger" emissionClass="HBEFA4/PC_diesel_Euro-5" color="#3498DB" guiShape="passenger/sedan"/>
    <vType id="vtype-vehicle70" length="3.877854551737706" mass="1226.1016097831107" accel="2.1" decel="2.407602762154837" emergencyDecel="12.544740258380447" minGap="5.009164706967056" vClass="passenger" emissionClass="HBEFA4/PC_diesel_Euro-4" color="#3498DB" guiShape="passenger/sedan"/>
    <vType id="vtype-vehicle71" length="5.738021940886182" mass="1805.2183728108787" accel="2.1" decel="2.1695235217855986" emergencyDecel="11.877281509951107" minGap="7.628929979134132" vClass="passenger" emissionClass="HBEFA4/PC_diesel_Euro-5" color="#3498DB" guiShape="passenger/sedan"/>
    <vType id="vtype-vehicle72" length="4.427486864796639" mass="1325.6357618568684" accel="4.763754262025197" decel="2" emergencyDecel="10.338699736330478" minGap="5.978884003626679" vClass="passenger" emissionClass="HBEFA4/PC_LPG_petrol_Euro-2_(LPG)" color="#3498DB" guiShape="passenger/sedan"/>
    <vType id="vtype-vehicle73" length="5.392615654335543" mass="1677.3147046062309" accel="2.1" decel="4.835561521270503" emergencyDecel="9.845173647512986" minGap="5.856396899980542" vClass="passenger" emissionClass="HBEFA4/PC_diesel_Euro-1" color="#3498DB" guiShape="passenger/sedan"/>
    <vType id="vtype-vehicle74" length="3.781004925694097" mass="1528.5276458492647" accel="3.3009446176811803" decel="3.113758419796393" emergencyDecel="9.332655432055716" minGap="3.5653850400108658" vClass="passenger" emissionClass="HBEFA4/PC_diesel_Euro-5" color="#3498DB" guiShape="passenger/sedan"/>
    <vType id="vtype-vehicle75" length="4.915580003363678" mass="1403.891624654888" accel="2.1" decel="5.446209108916958" emergencyDecel="9.511223905258268" minGap="7.837947413805868" vClass="passenger" emissionClass="HBEFA4/PC_diesel_Euro-5" color="#3498DB" guiShape="passenger/sedan"/>
    <vType id="vtype-vehicle76" length="4.968890493723787" mass="1690.6828363666393" accel="3.6053310040737263" decel="3.9432885099373762" emergencyDecel="10.530745192334326" minGap="8.072889147162392" vClass="passenger" emissionClass="HBEFA4/PC_petrol_PreEuro_3WCat_1987-90" color="#3498DB" guiShape="passenger/sedan"/>
    <vType id="vtype-vehicle77" length="3.149892734020721" mass="1733.0977244144908" accel="2.1" decel="5.889135942560172" emergencyDecel="8.976548567056904" minGap="9.076474424011824" vClass="passenger" emissionClass="HBEFA4/PC_diesel_Euro-6ab" color="#3498DB" guiShape="passenger/sedan"/>
    <vType id="vtype-vehicle78" length="4.5642244343399545" mass="1405.8338932980687" accel="2.1" decel="3.5580196325765194" emergencyDecel="8.093007192448873" minGap="5.966832866791935" vClass="passenger" emissionClass="HBEFA4/PC_petrol_Euro-4" color="#3498DB" guiShape="passenger/sedan"/>
    <vType id="vtype-vehicle79" length="2.5" mass="1629.6033272872603" accel="2.1" decel="4.843124298544388" emergencyDecel="11.375197261326663" minGap="8.784457528849751" vClass="passenger" emissionClass="HBEFA4/PC_diesel_Euro-5" color="#3498DB" guiShape="passenger/sedan"/>
    <vType id="vtype-vehicle80" length="5.67579563150023" mass="1411.4748489626882" accel="5.182015534570613" decel="2" emergencyDecel="10.5468940019788" minGap="9.320477335570509" vClass="passenger" emissionClass="HBEFA4/PC_petrol_Euro-4" color="#3498DB" guiShape="passenger/sedan"/>
    <vType id="vtype-vehicle81" length="4.5881458637574815" mass="1694.4547301943696" accel="7.961793030137571" decel="4.621222403395473" emergencyDecel="12.598752379719564" minGap="7.982263778906274" vClass="passenger" emissionClass="HBEFA4/PC_petrol_Euro-4" color="#3498DB" guiShape="passenger/sedan"/>
    <vType id="vtype-vehicle82" length="3.108254325413459" mass="1804.2833804011655" accel="3.678058647382346" decel="4.346873338467756" emergencyDecel="8.596475237316742" minGap="6.798508289569759" vClass="passenger" emissionClass="HBEFA4/PC_diesel_Euro-6ab" color="#3498DB" guiShape="passenger/sedan"/>
    <vType id="vtype-vehicle83" length="4.432538871632306" mass="1239.8804357464003" accel="2.1" decel="4.438990106381235" emergencyDecel="10.943295774068664" minGap="6.4032256352150165" vClass="passenger" emissionClass="HBEFA4/PC_LPG_petrol_Euro-5_(LPG)" color="#3498DB" guiShape="passenger/sedan"/>
    <vType id="vtype-vehicle84" length="4.792297951688148" mass="1512.649270819235" accel="4.376714891262829" decel="4.961303457050723" emergencyDecel="9.686395174105286" minGap="5.226802579464383" vClass="passenger" emissionClass="HBEFA4/PC_diesel_Euro-4" color="#3498DB" guiShape="passenger/sedan"/>
    <vType id="vtype-vehicle85" length="4.140384329771037" mass="1551.1204205782801" accel="2.1" decel="4.9223026161233" emergencyDecel="8.514112483054824" minGap="7.629619299757746" vClass="passenger" emissionClass="HBEFA4/PC_petrol_Euro-3" color="#3498DB" guiShape="passenger/sedan"/>
    <vType id="vtype-vehicle86" length="5.004407649671735" mass="1833.2621487663678" accel="2.1" decel="4.0375290777780855" emergencyDecel="10.947083967187215" minGap="9.63265736373688" vClass="passenger" emissionClass="HBEFA4/PC_petrol_PreEuro_3WCat_1987-90" color="#3498DB" guiShape="passenger/sedan"/>
    <vType id="vtype-vehicle87" length="3.8983813356502925" mass="1722.2589403030286" accel="3.277186188520186" decel="3.41716134265226" emergencyDecel="8.44373036370419" minGap="7.102636141433731" vClass="passenger" emissionClass="HBEFA4/PC_diesel_Euro-5" color="#3498DB" guiShape="passenger/sedan"/>
    <vType id="vtype-vehicle88" length="4.072421892687063" mass="1469.9759010381501" accel="5.277214951032728" decel="4.786704068938715" emergencyDecel="7.973157966103428" minGap="8.06214973530094" vClass="passenger" emissionClass="HBEFA4/PC_LPG_petrol_Euro-5_(LPG)" color="#3498DB" guiShape="passenger/sedan"/>
    <vType id="vtype-vehicle89" length="3.444825719647982" mass="1396.8693529377947" accel="4.758759550016164" decel="4.755386171664134" emergencyDecel="10.57992086605374" minGap="9.556401547266088" vClass="passenger" emissionClass="HBEFA4/PC_PHEV_petrol_Euro-6d_(El)" color="#3498DB" guiShape="passenger/sedan"/>
    <vType id="vtype-vehicle90" length="3.5904459326285956" mass="1546.3028002624094" accel="2.1" decel="3.9065740796221906" emergencyDecel="11.434405841198856" minGap="3.622997985336512" vClass="passenger" emissionClass="HBEFA4/PC_petrol_Euro-4" color="#3498DB" guiShape="passenger/sedan"/>
    <vType id="vtype-vehicle91" length="4.916647981066213" mass="1760.7191853294698" accel="3.249688964087371" decel="3.857856608840232" emergencyDecel="10.913424312993298" minGap="6.680521190003026" vClass="passenger" emissionClass="HBEFA4/PC_CNG_petrol_Euro-4_(CNG)" color="#3498DB" guiShape="passenger/sedan"/>
    <vType id="vtype-vehicle92" length="5.138414780098632" mass="1694.2673461445806" accel="2.1" decel="4.167093206967911" emergencyDecel="11.096675551129756" minGap="7.391563043648403" vClass="passenger" emissionClass="HBEFA4/PC_PHEV_petrol_Euro-6d_(El)" color="#3498DB" guiShape="passenger/sedan"/>
    <vType id="vtype-vehicle93" length="6.350018481488043" mass="1527.5415078780327" accel="2.73237052467627" decel="2.952899927301969" emergencyDecel="9.968950668466128" minGap="8.791854088508133" vClass="passenger" emissionClass="HBEFA4/PC_petrol_Euro-2" color="#3498DB" guiShape="passenger/sedan"/>
    <vType id="vtype-vehicle94" length="5.057143761616085" mass="1802.5767562274875" accel="2.3728241399187953" decel="5.570093841311333" emergencyDecel="9.347963253087183" minGap="8.3873900176355" vClass="passenger" emissionClass="HBEFA4/PC_diesel_Euro-6ab" color="#3498DB" guiShape="passenger/sedan"/>
    <vType id="vtype-vehicle95" length="5.7411653342296605" mass="1523.1710442731792" accel="6.306479324777822" decel="5.4475600644657955" emergencyDecel="11.398874799905855" minGap="8.276053212760043" vClass="passenger" emissionClass="HBEFA4/PC_CNG_petrol_Euro-4_(CNG)" color="#3498DB" guiShape="passenger/sedan"/>
    <vType id="vtype-vehicle96" length="3.618214695767265" mass="1728.1139053256366" accel="2.1" decel="3.0722527057196403" emergencyDecel="11.646755386984179" minGap="7.911120740795158" vClass="passenger" emissionClass="HBEFA4/PC_PHEV_petrol_Euro-6d_(El)" color="#3498DB" guiShape="passenger/sedan"/>
    <vType id="vtype-vehicle97" length="3.720244652229275" mass="1662.9147103965079" accel="3.0705443193199287" decel="2.4314191872475215" emergencyDecel="8.842276511731416" minGap="4.760850480885767" vClass="passenger" emissionClass="HBEFA4/PC_diesel_1986-1988" color="#3498DB" guiShape="passenger/sedan"/>
    <vType id="vtype-vehicle98" length="6.154657635674254" mass="2004.687421166895" accel="5.508813458444967" decel="5.461403918843162" emergencyDecel="9.834520587330017" minGap="7.5557968143138465" vClass="passenger" emissionClass="HBEFA4/PC_LPG_petrol_Euro-6_(LPG)" color="#3498DB" guiShape="passenger/sedan"/>