<?xml version="1.0" ?>
<routes>
    <vType id="vtype-vehicle0" length="4.255012730490462" mass="1591.454138528327" accel="2.1" decel="3.8700109919027663" emergencyDecel="9.609287574990356" minGap="9.222396738787864" vClass="passenger" emissionClass="HBEFA4/PC_diesel_Euro-5" color="#3498DB" guiShape="passenger/sedan"/>
    <vType id="vtype-vehicle1" length="5.189085762518388" mass="1413.9417008504142" accel="2.1" decel="3.869493639066045" emergencyDecel="9.515152619477984" minGap="7.280512436799473" vClass="passenger" emissionClass="HBEFA4/PC_diesel_Euro-3" color="#3498DB" guiShape="passenger/sedan"/>
    <vType id="vtype-vehicle2" length="3.3051317536156963" mass="1645.110456653985" accel="4.4810863165298676" decel="3.9130276949212193" emergencyDecel="7" minGap="6.147185669718936" vClass="passenger" emissionClass="HBEFA4/PC_diesel_Euro-5" color="#3498DB" guiShape="passenger/sedan"/>
    <vType id="vtype-vehicle3" length="5.187919681850225" mass="1553.119250701965" accel="5.85647151504009" decel="4.267288066409603" emergencyDecel="11.366079289514913" minGap="6.06835740767855" vClass="passenger" emissionClass="HBEFA4/PC_petrol_PreEuro_3WCat_1987-90" color="#3498DB" guiShape="passenger/sedan"/>
    <vType id="vtype-vehicle4" length="4.848461014304554" mass="1761.8478947503093" accel="3.4593793453601256" decel="3.9392909041460844" emergencyDecel="10.273985868113954" minGap="8.1744504115759" vClass="passenger" emissionClass="HBEFA4/PC_LPG_petrol_Euro-6_(LPG)" color="#3498DB" guiShape="passenger/sedan"/>
    <vType id="vtype-vehicle5" length="4.296500068025191" mass="1480.608117533803" accel="3.0084951668217355" decel="3.6262974099792835" emergencyDecel="10.26203090505561" minGap="6.563316152618862" vClass="passenger" emissionClass="HBEFA4/PC_diesel_Euro-4" color="#3498DB" guiShape="passenger/sedan"/>
    <vType id="vtype-vehicle6" length="4.629770325431048" mass="1947.4732129282957" accel="4.97771558625417" decel="4.638792211703041" emergencyDecel="11.23266173859853" minGap="6.8230193044654275" vClass="passenger" emissionClass="HBEFA4/PC_petrol_Euro-2" color="#3498DB" guiShape="passenger/sedan"/>
    <vType id="vtype-vehicle7" length="4.110968634392783" mass="1771.7896824563222" accel="2.6973610955648737" decel="4.138022764817497" emergencyDecel="9.83562226506829" minGap="8.814787945857876" vClass="passenger" emissionClass="HBEFA4/PC_diesel_Euro-3" color="#3498DB" guiShape="passenger/sedan"/>
    <vType id="vtype-vehicle8" length="3.8703845879397845" mass="1300.8916152172035" accel="5.349898620703051" decel="3.5393925291280763" emergencyDecel="10.29391567998086" minGap="9.510875455269387" vClass="passenger" emissionClass="HBEFA4/PC_petrol_Euro-6ab" color="#3498DB" guiShape="passenger/sedan"/>
    <vType id="vtype-vehicle9" length="4.001065233960641" mass="1141.5513462972767" accel="2.1" decel="2.145248267847749" emergencyDecel="10.836656179262741" minGap="7.3433707756993165" vClass="passenger" emissionClass="HBEFA4/PC_petrol_Euro-6ab" color="#3498DB" guiShape="passenger/sedan"/>
    <vType id="vtype-vehicle10" length="3.8887554059241913" mass="1833.565305181371" accel="2.962157663988912" decel="3.9557024450883373" emergencyDecel="9.405977647652609" minGap="11.332799687005528" vClass="passenger" emissionClass="HBEFA4/PC_diesel_Euro-3" color="#3498DB" guiShape="passenger/sedan"/>
    <vType id="vtype-vehicle11" length="4.664132610274736" mass="1677.7176031383415" accel="2.95565082952918" decel="3.500934379984436" emergencyDecel="9.964571847106528" minGap="9.426653590084529" vClass="passenger" emissionClass="HBEFA4/PC_diesel_Euro-6ab" color="#3498DB" guiShape="passenger/sedan"/>
    <vType id="vtype-vehicle12" length="4.461566645853787" mass="1708.2910856134656" accel="3.8466827669635615" decel="5.561408214801476" emergencyDecel="12.05414309110425" minGap="4.9675309315269365" vClass="passenger" emissionClass="HBEFA4/PC_petrol_Euro-4" color="#3498DB" guiShape="passenger/sedan"/>
    <vType id="vtype-vehicle13" length="2.5" mass="1914.7633839033324" accel="2.4617563664761324" decel="2" emergencyDecel="8.265615184887498" minGap="7.628325028351332" vClass="passenger" emissionClass="HBEFA4/PC_diesel_Euro-3" color="#3498DB" guiShape="passenger/sedan"/>
    <vType id="vtype-vehicle14" length="2.5" mass="1809.8652095106615" accel="2.716406085233563" decel="3.2813893690130325" emergencyDecel="8.8092031696033" minGap="6.053808177275147" vClass="passenger" emissionClass="HBEFA4/PC_petrol_PreEuro_3WCat_1987-90" color="#3498DB" guiShape="passenger/sedan"/>
    <vType id="vtype-vehicle15" length="5.485148731326213" mass="1786.4439708599946" accel="2.1" decel="5.422747138926595" emergencyDecel="9.079102788955357" minGap="10.171815028266938" vClass="passenger" emissionClass="HBEFA4/PC_petrol_Euro-6ab" color="#3498DB" guiShape="passenger/sedan"/>
    <vType id="vtype-vehicle16" length="5.155223263709768" mass="1741.554539177728" accel="5.190491065454777" decel="4.894860004252057" emergencyDecel="9.486124640598986" minGap="7.5858862551311645" vClass="passenger" emissionClass="HBEFA4/PC_diesel_Euro-6ab" color="#3498DB" guiShape="passenger/sedan"/>
    <vType id="vtype-vehicle17" length="4.8836812836808985" mass="1662.3527743573059" accel="2.1" decel="2.8543698971226608" emergencyDecel="11.769538384814457" minGap="5.208476763414502" vClass="passenger" emissionClass="HBEFA4/PC_petrol_Euro-5" color="#3498DB" guiShape="passenger/sedan"/>
    <vType id="vtype-vehicle18" length="5.8244230115407465" mass="1226.002531107035" accel="3.264186469106769" decel="4.117831693872654" emergencyDecel="10.34203316649322" minGap="8.618159108038192" vClass="passenger" emissionClass="HBEFA4/PC_petrol_Euro-6ab" color="#3498DB" guiShape="passenger/sedan"/>
    <vType id="vtype-vehicle19" length="3.618987473703472" mass="1928.559672915009" accel="3.3824063101990802" decel="3.514470855980627" emergencyDecel="9.260531990697185" minGap="4.045276572892461" vClass="passenger" emissionClass="HBEFA4/PC_diesel_Euro-4" color="#3498DB" guiShape="passenger/sedan"/>
    <vType id="vtype-vehicle20" length="3.566603230306263" mass="1736.8545307995907" accel="2.4820938261196317" decel="3.741513961906372" emergencyDecel="8.495662670511429" minGap="4.315846114426368" vClass="passenger" emissionClass="HBEFA4/PC_diesel_Euro-5" color="#3498DB" guiShape="passenger/sedan"/>
    <vType id="vtype-vehicle21" length="6.294863804367905" mass="1448.2653607478974" accel="2.578290749141845" decel="2.286840654271423" emergencyDecel="8.202129569594225" minGap="2.4089653297018154" vClass="passenger" emissionClass="HBEFA4/PC_diesel_Euro-6ab" color="#3498DB" guiShape="passenger/sedan"/>
    <vType id="vtype-vehicle22" length="3.165814185258043" mass="1475.6620268341358" accel="2.1" decel="3.6155115198095538" emergencyDecel="9.669087955320316" minGap="4.242957013537769" vClass="passenger" emissionClass="HBEFA4/PC_petrol_PreEuro_3WCat_1987-90" color="#3498DB" guiShape="passenger/sedan"/>
    <vType id="vtype-vehicle23" length="4.039184263854341" mass="1566.1636499672854" accel="5.524536730058699" decel="4.175003115899848" emergencyDecel="11.489002186949094" minGap="7.262348065012761" vClass="passenger" emissionClass="HBEFA4/PC_diesel_Euro-6ab" color="#3498DB" guiShape="passenger/sedan"/>
    <vType id="vtype-vehicle24" length="3.7106654020737055" mass="1177.4489437920533" accel="2.1" decel="4.408326774530124" emergencyDecel="10.59693420290682" minGap="3.786752632436295" vClass="passenger" emissionClass="HBEFA4/PC_petrol_Euro-4" color="#3498DB" guiShape="passenger/sedan"/>
    <vType id="vtype-vehicle25" length="6.460971408230366" mass="1860.6167304191417" accel="2.1" decel="5.443120042841304" emergencyDecel="8.511609358431176" minGap="9.321278454357673" vClass="passenger" emissionClass="HBEFA4/PC_petrol_Euro-4" color="#3498DB" guiShape="passenger/sedan"/>
    <vType id="vtype-vehicle26" length="5.623025110303484" mass="1717.9361056150703" accel="2.1" decel="4.422123483478444" emergencyDecel="8.96687383864376" minGap="10.23317256295895" vClass="passenger" emissionClass="HBEFA4/PC_petrol_Euro-5" color="#3498DB" guiShape="passenger/sedan"/>
    <vType id="vtype-vehicle27" length="4.993871276605997" mass="1469.7662380669449" accel="2.1" decel="2.2220282983843402" emergencyDecel="7.717001553977634" minGap="3.607193717203611" vClass="passenger" emissionClass="HBEFA4/PC_diesel_Euro-3" color="#3498DB" guiShape="passenger/sedan"/>
    <vType id="vtype-vehicle28" length="3.8596059673460585" mass="1933.7600491761095" accel="2.1" decel="2.4910107001887942" emergencyDecel="10.005129285237334" minGap="4.647579381943525" vClass="passenger" emissionClass="HBEFA4/PC_diesel_Euro-6ab" color="#3498DB" guiShape="passenger/sedan"/>
    <vType id="vtype-vehicle29" length="4.493560684705659" mass="1633.073897159364" accel="4.515136181222081" decel="3.605610164957288" emergencyDecel="9.578350391289318" minGap="10.177407770407305" vClass="passenger" emissionClass="HBEFA4/PC_PHEV_petrol_Euro-6d_(El)" color="#3498DB" guiShape="passenger/sedan"/>
    <vType id="vtype-vehicle30" length="5.87523387818324" mass="1370.1687746682007" accel="2.1" decel="4.79861158832705" emergencyDecel="10.490385980329515" minGap="2.7893980025280323" vClass="passenger" emissionClass="HBEFA4/PC_diesel_Euro-4" color="#3498DB" guiShape="passenger/sedan"/>
    <vType id="vtype-vehicle31" length="5.274998687574076" mass="1662.241292966693" accel="4.109199234198789" decel="4.175831537728798" emergencyDecel="8.790117706922677" minGap="8.51679130364673" vClass="passenger" emissionClass="HBEFA4/PC_petrol_Euro-3" color="#3498DB" guiShape="passenger/sedan"/>
    <vType id="vtype-vehicle32" length="5.745370741873193" mass="1636.1796267916816" accel="2.672895513144217" decel="5.1654408077723755" emergencyDecel="9.899451822386032" minGap="9.622620053529426" vClass="passenger" emissionClass="HBEFA4/PC_diesel_Euro-5" color="#3498DB" guiShape="passenger/sedan"/>
    <vType id="vtype-vehicle33" length="5.504380430668172" mass="1729.1152917434608" accel="2.1" decel="5.086016064975223" emergencyDecel="8.800379559621728" minGap="7.6325949047478945" vClass="passenger" emissionClass="HBEFA4/PC_petrol_Euro-6ab" color="#3498DB" guiShape="passenger/sedan"/>
    <vType id="vtype-vehicle34" length="4.757040534394846" mass="1842.559818426387" accel="2.1" decel="5.647733057448383" emergencyDecel="9.200141518885715" minGap="10.295166588515093" vClass="passenger" emissionClass="HBEFA4/PC_diesel_Euro-6ab" color="#3498DB" guiShape="passenger/sedan"/>
    <vType id="vtype-vehicle35" length="3.317210139398706" mass="1412.4888081147178" accel="4.144006512593449" decel="2" emergencyDecel="10.095776284579161" minGap="6.677229276662415" vClass="passenger" emissionClass="HBEFA4/PC_petrol_Euro-3" color="#3498DB" guiShape="passenger/sedan"/>
    <vType id="vtype-vehicle36" length="5.6586996492362385" mass="1584.0104685195322" accel="2.1" decel="5.609449211268906" emergencyDecel="11.094256015106659" minGap="6.798352658798667" vClass="passenger" emissionClass="HBEFA4/PC_petrol_PreEuro_3WCat_1987-90" color="#3498DB" guiShape="passenger/sedan"/>
    <vType id="vtype-vehicle37" length="4.501854960989107" mass="1902.369381192672" accel="4.268519648061971" decel="3.1972653639029027" emergencyDecel="9.742830771730869" minGap="5.753760221357519" vClass="passenger" emissionClass="HBEFA4/PC_diesel_Euro-3" color="#3498DB" guiShape="passenger/sedan"/>
    <vType id="vtype-vehicle38" length="4.357839597966281" mass="1724.3155072772806" accel="2.5627449211755957" decel="5.2253699303421985" emergencyDecel="10.273833930265662" minGap="7.832688083564212" vClass="passenger" emissionClass="HBEFA4/PC_LPG_petrol_Euro-6_(LPG)" color="#3498DB" guiShape="passenger/sedan"/>
    <vType id="vtype-vehicle39" length="5.55969987173941" mass="1726.2881893400388" accel="2.269560265429895" decel="4.065804580475914" emergencyDecel="10.796004187195646" minGap="6.440107584021744" vClass="passenger" emissionClass="HBEFA4/PC_CNG_petrol_Euro-6_(CNG)" color="#3498DB" guiShape="passenger/sedan"/>
    <vType id="vtype-vehicle40" length="3.7328656832770344" mass="1238.2279906650724" accel="3.110871652632368" decel="4.817284155240017" emergencyDecel="10.219017108038058" minGap="4.563620761203222" vClass="passenger" emissionClass="HBEFA4/PC_petrol_PreEuro_3WCat_1987-90" color="#3498DB" guiShape="passenger/sedan"/>
    <vType id="vtype-vehicle41" length="3.146355029744953" mass="1559.4831172258755" accel="3.358759994340759" decel="3.598814668544324" emergencyDecel="9.44051734338797" minGap="7.348424425206433" vClass="passenger" emissionClass="HBEFA4/PC_diesel_Euro-4" color="#3498DB" guiShape="passenger/sedan"/>
    <vType id="vtype-vehicle42" length="4.842146787231368" mass="1647.6877815320304" accel="3.570848188062948" decel="4.108425924726687" emergencyDecel="9.922131443405824" minGap="3.7769704484598554" vClass="passenger" emissionClass="HBEFA4/PC_petrol_Euro-2" color="#3498DB" guiShape="passenger/sedan"/>
    <vType id="vtype-vehicle43" length="3.958718707636807" mass="1370.3657046170129" accel="2.5028415987214294" decel="3.44343137250243" emergencyDecel="10.137662936720456" minGap="7.31197439843917" vClass="passenger" emissionClass="HBEFA4/PC_petrol_Euro-4" color="#3498DB" guiShape="passenger/sedan"/>
    <vType id="vtype-vehicle44" length="3.167879017756892" mass="1830.262083037215" accel="2.4548185827107485" decel="3.88633033109321" emergencyDecel="9.028696859838991" minGap="5.431014433010713" vClass="passenger" emissionClass="HBEFA4/PC_petrol_Euro-6ab" color="#3498DB" guiShape="passenger/sedan"/>
    <vType id="vtype-vehicle45" length="6.614435645169741" mass="1663.1667182671652" accel="2.3910598868572173" decel="4.900685307394479" emergencyDecel="9.267232708141139" minGap="7.6144644003723885" vClass="passenger" emissionClass="HBEFA4/PC_diesel_Euro-5" color="#3498DB" guiShape="passenger/sedan"/>
    <vType id="vtype-vehicle46" length="2.769694862736039" mass="1486.1117040396857" accel="4.608126475116326" decel="3.531909980786416" emergencyDecel="9.917352162715853" minGap="9.96859266080042" vClass="passenger" emissionClass="HBEFA4/PC_diesel_Euro-5" color="#3498DB" guiShape="passenger/sedan"/>
    <vType id="vtype-vehicle47" length="5.525755124532161" mass="1620.6699368070417" accel="7.24586296111268" decel="4.629341702390361" emergencyDecel="10.361520580960804" minGap="4.166397761322382" vClass="passenger" emissionClass="HBEFA4/PC_PHEV_petrol_Euro-6d_(El)" color="#3498DB" guiShape="passenger/sedan"/>
    <vType id="vtype-vehicle48" length="4.54601458831116" mass="1373.6433619183263" accel="3.9326159187761003" decel="2" emergencyDecel="10.292749296106535" minGap="6.277406035022235" vClass="passenger" emissionClass="HBEFA4/PC_petrol_Euro-6ab" color="#3498DB" guiShape="passenger/sedan"/>
    <vType id="vtype-vehicle49" length="3.1513835224633464" mass="1592.5774289744247" accel="2.1" decel="3.077961092448928" emergencyDecel="10.795876464779994" minGap="7.373377074228252" vClass="passenger" emissionClass="HBEFA4/PC_PHEV_petrol_Euro-6d_(El)" color="#3498DB" guiShape="passenger/sedan"/>
    <vType id="vtype-vehicle50" length="3.8954626613255012" mass="1685.3356597435625" accel="4.638695394998834" decel="4.584110725955688" emergencyDecel="9.353884549807038" minGap="10.110834020618885" vClass="passenger" emissionClass="HBEFA4/PC_petrol_Euro-5" color="#3498DB" guiShape="passenger/sedan"/>
    <vType id="vtype-vehicle51" length="4.680464691826821" mass="1496.4638808759148" accel="2.3213849469033745" decel="2.3104611472741663" emergencyDecel="10.224233133329117" minGap="10.75823113280715" vClass="passenger" emissionClass="HBEFA4/PC_petrol_Euro-6ab" color="#3498DB" guiShape="passenger/sedan"/>
    <vType id="vtype-vehicle52" length="4.26013194671609" mass="1124.3337916584283" accel="2.1" decel="3.828937072028125" emergencyDecel="8.334135420785008" minGap="7.624152224117538" vClass="passenger" emissionClass="HBEFA4/PC_diesel_Euro-5" color="#3498DB" guiShape="passenger/sedan"/>
    <vType id="vtype-vehicle53" length="3.147922024671191" mass="1802.2257088665192" accel="2.1" decel="4.171549116550875" emergencyDecel="8.654953325763916" minGap="4.1718930982701625" vClass="passenger" emissionClass="HBEFA4/PC_petrol_Euro-4" color="#3498DB" guiShape="passenger/sedan"/>
    <vType id="vtype-vehicle54" length="4.630786808386722" mass="1702.217658393276" accel="4.272049381453536" decel="4.422857174904606" emergencyDecel="11.417315748182093" minGap="6.6639111526479695" vClass="passenger" emissionClass="HBEFA4/PC_diesel_Euro-6ab" color="#3498DB" guiShape="passenger/sedan"/>
    <vType id="vtype-vehicle55" length="4.45491325571611" mass="1417.4645131787095" accel="2.766596880085672" decel="3.2276072874936643" emergencyDecel="10.243962773999" minGap="8.435587644699265" vClass="passenger" emissionClass="HBEFA4/PC_diesel_Euro-4" color="#3498DB" guiShape="passenger/sedan"/>
    <vType id="vtype-vehicle56" length="3.272288262734169" mass="1699.879339234127" accel="2.1" decel="6.462855615096881" emergencyDecel="10.871249050125746" minGap="6.860993032168582" vClass="passenger" emissionClass="HBEFA4/PC_LPG_petrol_Euro-5_(LPG)" color="#3498DB" guiShape="passenger/sedan"/>
    <vType id="vtype-vehicle57" length="3.317728453506918" mass="1661.8473541559263" accel="2.1" decel="4.0935163311933715" emergencyDecel="10.25992095882372" minGap="7.329858347503211" vClass="passenger" emissionClass="HBEFA4/PC_petrol_PreEuro_3WCat_1987-90" color="#3498DB" guiShape="passenger/sedan"/>
    <vType id="vtype-vehicle58" length="4.377440788995711" mass="1836.0452003692471" accel="4.874982523951638" decel="3.965074237799875" emergencyDecel="10.443501690469589" minGap="5.239286405640772" vClass="passenger" emissionClass="HBEFA4/PC_LPG_petrol_Euro-4_(LPG)" color="#3498DB" guiShape="passenger/sedan"/>
    <vType id="vtype-vehicle59" length="4.607341349594444" mass="1252.6475102811658" accel="2.6079762796126054" decel="5.303689891164982" emergencyDecel="8.469818232053182" minGap="9.25758967254424" vClass="passenger" emissionClass="HBEFA4/PC_LPG_petrol_Euro-6_(LPG)" color="#3498DB" guiShape="passenger/sedan"/>
    <vType id="vtype-vehicle60" length="4.012903242953577" mass="1626.039555157254" accel="4.236261626135324" decel="5.186242725426959" emergencyDecel="8.07768960932857" minGap="9.71542042885871" vClass="passenger" emissionClass="HBEFA4/PC_diesel_Euro-4" color="#3498DB" guiShape="passenger/sedan"/>
    <vType id="vtype-vehicle61" length="4.740535822266232" mass="1782.28231266201" accel="2.1" decel="3.7445164683470398" emergencyDecel="7.9190289614602545" minGap="6.4997292149753045" vClass="passenger" emissionClass="HBEFA4/PC_diesel_Euro-6ab" color="#3498DB" guiShape="passenger/sedan"/>
    <vType id="vtype-vehicle62" length="5.265028835880295" mass="1447.0706266512773" accel="2.1" decel="4.478632228096191" emergencyDecel="9.88497271990748" minGap="10.010342889077215" vClass="passenger" emissionClass="HBEFA4/PC_petrol_Euro-4" color="#3498DB" guiShape="passenger/sedan"/>
    <vType id="vtype-vehicle63" length="5.64892965014195" mass="1502.6712581128343" accel="2.608999617713147" decel="4.181827440394247" emergencyDecel="9.458792919851303" minGap="8.284775455564617" vClass="passenger" emissionClass="HBEFA4/PC_diesel_Euro-4" color="#3498DB" guiShape="passenger/sedan"/>
    <vType id="vtype-vehicle64" length="4.332338736114685" mass="1675.9295940402578" accel="3.140312626528432" decel="3.7093057313944904" emergencyDecel="10.081734500375642" minGap="7.1649007042474455" vClass="passenger" emissionClass="HBEFA4/PC_petrol_Euro-4" color="#3498DB" guiShape="passenger/sedan"/>
    <vType id="vtype-vehicle65" length="2.6055607957261864" mass="1752.7820352636593" accel="6.74015804014008" decel="4.027310817058291" emergencyDecel="9.109625032021023" minGap="4.818740189295834" vClass="passenger" emissionClass="HBEFA4/PC_petrol_Euro-3" color="#3498DB" guiShape="passenger/sedan"/>
    <vType id="vtype-vehicle66" length="5.976407122965809" mass="1799.5300283498007" accel="2.1" decel="5.038073023807614" emergencyDecel="9.6441555959917" minGap="6.4263409638330105" vClass="passenger" emissionClass="HBEFA4/PC_diesel_1986-1988" color="#3498DB" guiShape="passenger/sedan"/>
    <vType id="vtype-vehicle67" length="4.0509631837003415" mass="1238.4975767455958" accel="2.4176767409775253" decel="4.716709729666786" emergencyDecel="9.465832307567176" minGap="6.47048186982713" vClass="passenger" emissionClass="HBEFA4/PC_petrol_Euro-5" color="#3498DB" guiShape="passenger/sedan"/>
    <vType id="vtype-vehicle68" length="3.1961072011833367" mass="1409.523066536283" accel="3.8382896738936747" decel="5.769567502154771" emergencyDecel="11.257782870597593" minGap="3.854034058747098" vClass="passenger" emissionClass="HBEFA4/PC_LPG_petrol_Euro-4_(LPG)" color="#3498DB" guiShape="passenger/sedan"/>
    <vType id="vtype-vehicle69" length="4.713752263101648" mass="1334.643204100428" accel="2.1" decel="3.8178231573710777" emergencyDecel="9.37231306923203" minGap="7.652386128868661" vClass="passenger" emissionClass="HBEFA4/PC_petrol_Euro-6ab" color="#3498DB" guiShape="passenger/sedan"/>
    <vType id="vtype-vehicle70" length="4.72862811450916" mass="1619.1379680761122" accel="2.9078493234408422" decel="5.448269351198003" emergencyDecel="10.556252265159829" minGap="5.838027954888226" vClass="passenger" emissionClass="HBEFA4/PC_LPG_petrol_Euro-3_(LPG)" color="#3498DB" guiShape="passenger/sedan"/>
    <vType id="vtype-vehicle71" length="3.1137402291416354" mass="1727.809466078134" accel="2.513148635339179" decel="4.086824898963966" emergencyDecel="10.428825501183862" minGap="7.0448086885756664" vClass="passenger" emissionClass="HBEFA4/PC_diesel_Euro-5" color="#3498DB" guiShape="passenger/sedan"/>
    <vType id="vtype-vehicle72" length="4.939071667223904" mass="1469.3645937166102" accel="4.6631534227708435" decel="4.756024784699137" emergencyDecel="8.784506786748825" minGap="5.624457333758049" vClass="passenger" emissionClass="HBEFA4/PC_diesel_Euro-5" color="#3498DB" guiShape="passenger/sedan"/>
    <vType id="vtype-vehicle73" length="3.6367106358777965" mass="1631.5808288564785" accel="3.925058331055734" decel="5.666027425870796" emergencyDecel="10.994630798366087" minGap="6.361174574239128" vClass="passenger" emissionClass="HBEFA4/PC_petrol_Euro-5" color="#3498DB" guiShape="passenger/sedan"/>
    <vType id="vtype-vehicle74" length="5.085474315607372" mass="1702.2449687824148" accel="2.1" decel="4.638843141980855" emergencyDecel="9.146820321524938" minGap="8.582473338074857" vClass="passenger" emissionClass="HBEFA4/PC_CNG_petrol_Euro-5_(CNG)" color="#3498DB" guiShape="passenger/sedan"/>
    <vType id="vtype-vehicle75" length="2.8692019750798075" mass="1576.2681256413011" accel="3.072899800804999" decel="3.697722766453141" emergencyDecel="9.734188836998122" minGap="11.840671319752273" vClass="passenger" emissionClass="HBEFA4/PC_petrol_Euro-2" color="#3498DB" guiShape="passenger/sedan"/>
    <vType id="vtype-vehicle76" length="3.775370594917832" mass="1777.6206385750108" accel="4.8437127454394435" decel="3.210901920044411" emergencyDecel="9.418768315308855" minGap="3.0315106657741215" vClass="passenger" emissionClass="HBEFA4/PC_LPG_petrol_Euro-5_(LPG)" color="#3498DB" guiShape="passenger/sedan"/>
    <vType id="vtype-vehicle77" length="4.462508985518739" mass="1770.677419976986" accel="4.3341221194405595" decel="2.847775145752876" emergencyDecel="10.750352416273229" minGap="3.6214520107984756" vClass="passenger" emissionClass="HBEFA4/PC_diesel_Euro-6ab" color="#3498DB" guiShape="passenger/sedan"/>
    <vType id="vtype-vehicle78" length="4.569965425351883" mass="1567.4344063307715" accel="2.1" decel="4.1945854523821335" emergencyDecel="9.529606209762175" minGap="5.701515983973967" vClass="passenger" emissionClass="HBEFA4/PC_diesel_Euro-5" color="#3498DB" guiShape="passenger/sedan"/>
    <vType id="vtype-vehicle79" length="3.7542431185446135" mass="1946.9306175020363" accel="2.1" decel="2.3484339119539728" emergencyDecel="9.085685690439409" minGap="7.31260500177036" vClass="passenger" emissionClass="HBEFA4/PC_petrol_Euro-6ab" color="#3498DB" guiShape="passenger/sedan"/>
    <vType id="vtype-vehicle80" length="5.038370702868783" mass="1677.3841278104926" accel="2.1" decel="2.48059973883497" emergencyDecel="13.33228262649355" minGap="4.719579988590478" vClass="passenger" emissionClass="HBEFA4/PC_diesel_Euro-6ab" color="#3498DB" guiShape="passenger/sedan"/>
    <vType id="vtype-vehicle81" length="4.875011296270419" mass="1480.1276657324806" accel="4.389634001621038" decel="3.2718754461185138" emergencyDecel="9.720625615177344" minGap="5.314022921729072" vClass="passenger" emissionClass="HBEFA4/PC_CNG_petrol_Euro-4_(CNG)" color="#3498DB" guiShape="passenger/sedan"/>
    <vType id="vtype-vehicle82" length="5.500091069791232" mass="1497.6553812831223" accel="9.823390950109012" decel="3.234146611943153" emergencyDecel="11.864119539149279" minGap="7.156294126545232" vClass="passenger" emissionClass="HBEFA4/PC_petrol_Euro-5" color="#3498DB" guiShape="passenger/sedan"/>
    <vType id="vtype-vehicle83" length="3.2849312818900263" mass="2062.1184330983438" accel="2.1" decel="4.360838521169043" emergencyDecel="9.940784255614195" minGap="9.129433944779935" vClass="passenger" emissionClass="HBEFA4/PC_LPG_petrol_Euro-5_(LPG)" color="#3498DB" guiShape="passenger/sedan"/>
    <vType id="vtype-vehicle84" length="4.53080384275555" mass="1467.7315551121405" accel="3.489004086477774" decel="3.8388892303618642" emergencyDecel="9.727856524001687" minGap="9.36304354740528" vClass="passenger" emissionClass="HBEFA4/PC_diesel_1986-1988" color="#3498DB" guiShape="passenger/sedan"/>
    <vType id="vtype-vehicle85" length="2.5" mass="1917.3002004817715" accel="4.681088165858377" decel="3.497975663887623" emergencyDecel="9.653924537805125" minGap="2.6420629869007675" vClass="passenger" emissionClass="HBEFA4/PC_petrol_Euro-6ab" color="#3498DB" guiShape="passenger/sedan"/>
    <vType id="vtype-vehicle86" length="4.492403522631837" mass="1537.3880882314872" accel="2.1" decel="5.3354926794077375" emergencyDecel="10.175305337108675" minGap="6.612498862581961" vClass="passenger" emissionClass="HBEFA4/PC_diesel_Euro-4" color="#3498DB" guiShape="passenger/sedan"/>
    <vType id="vtype-vehicle87" length="3.6284642769400435" mass="1524.7582746160037" accel="4.434486869829879" decel="4.552653771480385" emergencyDecel="11.823575078104973" minGap="4.088949552113313" vClass="passenger" emissionClass="HBEFA4/PC_petrol_Euro-2" color="#3498DB" guiShape="passenger/sedan"/>
    <vType id="vtype-vehicle88" length="3.1553702461972946" mass="1444.9165440561428" accel="6.193410423757827" decel="3.325576671993545" emergencyDecel="9.351502176721706" minGap="8.918871426420994" vClass="passenger" emissionClass="HBEFA4/PC_diesel_Euro-4" color="#3498DB" guiShape="passenger/sedan"/>
    <vType id="vtype-vehicle89" length="5.3238355962323105" mass="1210.5370402823337" accel="2.6832146185308066" decel="3.4437147879497085" emergencyDecel="9.249529965807461" minGap="9.040767605782747" vClass="passenger" emissionClass="HBEFA4/PC_diesel_Euro-2" color="#3498DB" guiShape="passenger/sedan"/>
    <vType id="vtype-vehicle90" length="4.733945686925325" mass="1704.915749061503" accel="5.624271233492021" decel="4.118500950936956" emergencyDecel="9.448996991457074" minGap="9.408631239939632" vClass="passenger" emissionClass="HBEFA4/PC_petrol_Euro-5" color="#3498DB" guiShape="passenger/sedan"/>
    <vType id="vtype-vehicle91" length="5.184617202141623" mass="1367.7627998495307" accel="2.1" decel="3.77629192099736" emergencyDecel="10.553035687706958" minGap="8.02714062070256" vClass="passenger" emissionClass="HBEFA4/PC_BEV" color="#3498DB" guiShape="passenger/sedan"/>
    <vType id="vtype-vehicle92" length="3.858454015464382" mass="1954.6091456168692" accel="2.1" decel="4.417474095256725" emergencyDecel="9.549494892841155" minGap="6.056797322290015" vClass="passenger" emissionClass="HBEFA4/PC_petrol_Euro-4" color="#3498DB" guiShape="passenger/sedan"/>
    <vType id="vtype-vehicle93" length="4.647511649444776" mass="1648.5687968199643" accel="5.131360269793336" decel="4.658521572162899" emergencyDecel="7.896515253433571" minGap="6.246884619041052" vClass="passenger" emissionClass="HBEFA4/PC_diesel_Euro-4" color="#3498DB" guiShape="passenger/sedan"/>
    <vType id="vtype-vehicle94" length="4.030926218048581" mass="2199.6608934972296" accel="2.1" decel="3.4975011484448952" emergencyDecel="9.296350510830207" minGap="8.518093774510438" vClass="passenger" emissionClass="HBEFA4/PC_PHEV_petrol_Euro-6d_(El)" color="#3498DB" guiShape="passenger/sedan"/>
    <vType id="vtype-vehicle95" length="4.358163808210728" mass="1888.539025326902" accel="2.2745850178634797" decel="3.266459477010052" emergencyDecel="10.887645293451305" minGap="6.985333677508946" vClass="passenger" emissionClass="HBEFA4/PC_diesel_Euro-4" color="#3498DB" guiShape="passenger/sedan"/>
    <vType id="vtype-vehicle96" length="5.144191878608905" mass="1663.6945767858515" accel="2.9039814827871697" decel="4.364172513235014" emergencyDecel="10.13589003981053" minGap="4.499693101809012" vClass="passenger" emissionClass="HBEFA4/PC_petrol_PreEuro_3WCat_1987-90" color="#3498DB" guiShape="passenger/sedan"/>
    <vType id="vtype-vehicle97" length="4.921273777610781" mass="1676.4890949716475" accel="5.577614971520958" decel="4.616246266293292" emergencyDecel="10.789688127513209" minGap="10.028482850871677" vClass="passenger" emissionClass="HBEFA4/PC_diesel_Euro-5" color="#3498DB" guiShape="passenger/sedan"/>
    <vType id="vtype-vehicle98" length="4.785156649678221" mass="1443.1980745696965" accel="8.188111682572881" decel="5.059938571290298" emergencyDecel="10.974302448355756" minGap="11.992991446134223" vClass="passenger" emissionClass="HBEFA4/PC_petrol_Euro-6ab" color="#3498DB" guiShape="passenger/sedan"/>