<?xml version="1.0" ?>
<routes>
    <vType id="vtype-vehicle0" length="5.921853569175016" mass="1458.8940882786967" accel="5.72458295144617" decel="3.292183071462273" emergencyDecel="8.373999495751278" minGap="8.350196239338395" vClass="passenger" emissionClass="HBEFA4/PC_petrol_Euro-6ab" color="#3498DB" guiShape="passenger/sedan"/>
    <vType id="vtype-vehicle1" length="3.136104126702122" mass="1443.7569653679311" accel="2.8330936382650647" decel="4.853196507005513" emergencyDecel="8.374103611625554" minGap="4.253672339247658" vClass="passenger" emissionClass="HBEFA4/PC_LPG_petrol_Euro-6_(LPG)" color="#3498DB" guiShape="passenger/sedan"/>
    <vType id="vtype-vehicle2" length="5.5737055836839495" mass="1625.171220324792" accel="2.1" decel="3.0749864777111013" emergencyDecel="10.799345893637739" minGap="6.9783430931379655" vClass="passenger" emissionClass="HBEFA4/PC_CNG_petrol_Euro-4_(CNG)" color="#3498DB" guiShape="passenger/sedan"/>
    <vType id="vtype-vehicle3" length="5.155626785206086" mass="1915.656360951305" accel="2.9565495395475407" decel="3.343558104920245" emergencyDecel="10.098916141152673" minGap="9.288941228287237" vClass="passenger" emissionClass="HBEFA4/PC_petrol_Euro-2" color="#3498DB" guiShape="passenger/sedan"/>
    <vType id="vtype-vehicle4" length="5.498125270430161" mass="1286.1638379323679" accel="4.998196957906273" decel="4.188040856794852" emergencyDecel="10.816155446027953" minGap="11.307205363291352" vClass="passenger" emissionClass="HBEFA4/PC_petrol_Euro-5" color="#3498DB" guiShape="passenger/sedan"/>
    <vType id="vtype-vehicle5" length="5.827196670253884" mass="1674.8617595486737" accel="3.119860166788433" decel="5.61669146602117" emergencyDecel="9.76746096947978" minGap="10.936003525251305" vClass="passenger" emissionClass="HBEFA4/PC_petrol_Euro-4" color="#3498DB" guiShape="passenger/sedan"/>
    <vType id="vtype-vehicle6" length="4.644111763236479" mass="1180.617405534788" accel="4.161140825218985" decel="2.257389759732992" emergencyDecel="8.330514777800445" minGap="7.623762250447812" vClass="passenger" emissionClass="HBEFA4/PC_diesel_Euro-3" color="#3498DB" guiShape="passenger/sedan"/>
    <vType id="vtype-vehicle7" length="3.4423345280495368" mass="2006.5347642278396" accel="3.0395672073686657" decel="5.139237321924687" emergencyDecel="10.705202833658113" minGap="5.852889739485535" vClass="passenger" emissionClass="HBEFA4/PC_diesel_Euro-5" color="#3498DB" guiShape="passenger/sedan"/>
    <vType id="vtype-vehicle8" length="3.7866143920041004" mass="1564.7446523421047" accel="2.4361470600928286" decel="3.8587694115184843" emergencyDecel="10.084874886423677" minGap="5.533615595369421" vClass="passenger" emissionClass="HBEFA4/PC_diesel_Euro-4" color="#3498DB" guiShape="passenger/sedan"/>
    <vType id="vtype-vehicle9" length="3.5823651738862643" mass="1358.8238957197575" accel="5.046406718736804" decel="5.082885126687219" emergencyDecel="11.206108803499248" minGap="3.352588617318206" vClass="passenger" emissionClass="HBEFA4/PC_petrol_PreEuro_3WCat_1987-90" color="#3498DB" guiShape="passenger/sedan"/>
    <vType id="vtype-vehicle10" length="5.262421252765215" mass="1822.7917308408196" accel="3.6243226542996188" decel="2.917890622599921" emergencyDecel="8.300483697145388" minGap="4.971179707398326" vClass="passenger" emissionClass="HBEFA4/PC_diesel_Euro-5" color="#3498DB" guiShape="passenger/sedan"/>
    <vType id="vtype-vehicle11" length="6.103348451717875" mass="1396.6198549226" accel="4.069637680538188" decel="4.888254420640768" emergencyDecel="9.782755355497898" minGap="8.909901443504028" vClass="passenger" emissionClass="HBEFA4/PC_diesel_1986-1988" color="#3498DB" guiShape="passenger/sedan"/>
    <vType id="vtype-vehicle12" length="3.8302769729808444" mass="1912.7363672940717" accel="9.232421011100868" decel="6.022563551284916" emergencyDecel="9.62056098250717" minGap="7.2960957396850965" vClass="passenger" emissionClass="HBEFA4/PC_diesel_Euro-2" color="#3498DB" guiShape="passenger/sedan"/>
    <vType id="vtype-vehicle13" length="5.002323170931162" mass="1390.181678255382" accel="2.1" decel="5.46607680321409" emergencyDecel="10.799972966468687" minGap="8.848786500172316" vClass="passenger" emissionClass="HBEFA4/PC_diesel_Euro-3" color="#3498DB" guiShape="passenger/sedan"/>
    <vType id="vtype-vehicle14" length="5.0474184712189105" mass="1800.7758585886254" accel="3.6676482092077998" decel="5.415474040222742" emergencyDecel="8.08552053120907" minGap="11.660863273845312" vClass="passenger" emissionClass="HBEFA4/PC_diesel_Euro-5" color="#3498DB" guiShape="passenger/sedan"/>
    <vType id="vtype-vehicle15" length="3.6574832583475776" mass="1588.5295301035735" accel="3.640602057646695" decel="3.432114069223629" emergencyDecel="10.541746672264892" minGap="5.039818403513459" vClass="passenger" emissionClass="HBEFA4/PC_petrol_PreEuro_3WCat_1987-90" color="#3498DB" guiShape="passenger/sedan"/>
    <vType id="vtype-vehicle16" length="3.7285589186217374" mass="1440.0997154630309" accel="3.781731672393542" decel="3.942214480246186" emergencyDecel="8.934820047476602" minGap="7.491179048632239" vClass="passenger" emissionClass="HBEFA4/PC_diesel_Euro-5" color="#3498DB" guiShape="passenger/sedan"/>
    <vType id="vtype-vehicle17" length="3.920828464537475" mass="1956.4160575339124" accel="2.1" decel="3.7520719433521017" emergencyDecel="10.919775584397147" minGap="9.630973968521864" vClass="passenger" emissionClass="HBEFA4/PC_diesel_Euro-6ab" color="#3498DB" guiShape="passenger/sedan"/>
    <vType id="vtype-vehicle18" length="2.6396280748316547" mass="1610.929572588158" accel="2.1" decel="3.7011085374101533" emergencyDecel="9.72401334729216" minGap="9.201458262519512" vClass="passenger" emissionClass="HBEFA4/PC_petrol_Euro-3" color="#3498DB" guiShape="passenger/sedan"/>
    <vType id="vtype-vehicle19" length="4.33181269483843" mass="1745.6158889116764" accel="2.9298011920045792" decel="3.1271829006656997" emergencyDecel="8.436667573814637" minGap="7.581023727607855" vClass="passenger" emissionClass="HBEFA4/PC_petrol_Euro-6ab" color="#3498DB" guiShape="passenger/sedan"/>
    <vType id="vtype-vehicle20" length="4.874693392640473" mass="1711.010789716908" accel="3.9544140768141944" decel="3.6788847316473516" emergencyDecel="10.680457301234037" minGap="8.803406806849459" vClass="passenger" emissionClass="HBEFA4/PC_diesel_Euro-4" color="#3498DB" guiShape="passenger/sedan"/>
    <vType id="vtype-vehicle21" length="5.864748002633794" mass="1936.8824582316893" accel="2.1" decel="2.9628819727464957" emergencyDecel="9.318302976496968" minGap="7.5132510510307355" vClass="passenger" emissionClass="HBEFA4/PC_diesel_Euro-1" color="#3498DB" guiShape="passenger/sedan"/>
    <vType id="vtype-vehicle22" length="4.648869874314971" mass="1686.0587149763533" accel="2.1" decel="5.12481225111401" emergencyDecel="10.224714927316022" minGap="9.743331295726234" vClass="passenger" emissionClass="HBEFA4/PC_petrol_Euro-4" color="#3498DB" guiShape="passenger/sedan"/>
    <vType id="vtype-vehicle23" length="4.029152547812163" mass="1316.6172959401376" accel="5.257183296900809" decel="2.737189257494746" emergencyDecel="10.88099527855956" minGap="3.823398751513816" vClass="passenger" emissionClass="HBEFA4/PC_diesel_Euro-4" color="#3498DB" guiShape="passenger/sedan"/>
    <vType id="vtype-vehicle24" length="3.730104822213335" mass="1393.448834841528" accel="2.149260552602012" decel="4.7232139171535055" emergencyDecel="10.181406498393041" minGap="8.764640496498686" vClass="passenger" emissionClass="HBEFA4/PC_petrol_PreEuro_3WCat_1987-90" color="#3498DB" guiShape="passenger/sedan"/>
    <vType id="vtype-vehicle25" length="3.7411209130367062" mass="1521.9246544120087" accel="4.039205093046274" decel="5.654703844709038" emergencyDecel="8.417728102418042" minGap="7.726222886575479" vClass="passenger" emissionClass="HBEFA4/PC_petrol_Euro-4" color="#3498DB" guiShape="passenger/sedan"/>
    <vType id="vtype-vehicle26" length="6.003011882052687" mass="1695.9601218289406" accel="4.277213343636297" decel="3.2699176566179466" emergencyDecel="9.809425018648142" minGap="6.199868813265946" vClass="passenger" emissionClass="HBEFA4/PC_petrol_Euro-3" color="#3498DB" guiShape="passenger/sedan"/>
    <vType id="vtype-vehicle27" length="5.118620332279206" mass="1921.8938251237116" accel="2.1" decel="3.977380738629839" emergencyDecel="9.284560458211743" minGap="5.473671466329656" vClass="passenger" emissionClass="HBEFA4/PC_LPG_petrol_Euro-3_(LPG)" color="#3498DB" guiShape="passenger/sedan"/>
    <vType id="vtype-vehicle28" length="4.309339625817691" mass="1413.9137559449086" accel="8.000352348194603" decel="3.705275306934229" emergencyDecel="9.258233770268157" minGap="7.688787292875922" vClass="passenger" emissionClass="HBEFA4/PC_diesel_Euro-6ab" color="#3498DB" guiShape="passenger/sedan"/>
    <vType id="vtype-vehicle29" length="5.1898305852955104" mass="1915.1030560983236" accel="2.1" decel="4.41522672347984" emergencyDecel="9.560305725542397" minGap="6.9337241599463955" vClass="passenger" emissionClass="HBEFA4/PC_petrol_Euro-3" color="#3498DB" guiShape="passenger/sedan"/>
    <vType id="vtype-vehicle30" length="3.4543094919606827" mass="1200.8806532795147" accel="3.411865810648395" decel="4.379650777057736" emergencyDecel="9.924093912856772" minGap="7.7885059403927555" vClass="passenger" emissionClass="HBEFA4/PC_petrol_PreEuro_3WCat_1987-90" color="#3498DB" guiShape="passenger/sedan"/>
    <vType id="vtype-vehicle31" length="4.222618942548924" mass="1540.1274272502226" accel="3.350879576622259" decel="4.406936208757811" emergencyDecel="9.607597921714136" minGap="7.124950020472047" vClass="passenger" emissionClass="HBEFA4/PC_petrol_Euro-5" color="#3498DB" guiShape="passenger/sedan"/>
    <vType id="vtype-vehicle32" length="4.354312484222224" mass="1653.0835698136157" accel="4.465822633140926" decel="3.8324203286279626" emergencyDecel="8.864675530473598" minGap="8.971740874295715" vClass="passenger" emissionClass="HBEFA4/PC_petrol_Euro-3" color="#3498DB" guiShape="passenger/sedan"/>
    <vType id="vtype-vehicle33" length="4.194202110275257" mass="1498.8601796540665" accel="4.700191343485711" decel="3.8703298023507293" emergencyDecel="8.888866615964407" minGap="6.816309787948005" vClass="passenger" emissionClass="HBEFA4/PC_diesel_Euro-5" color="#3498DB" guiShape="passenger/sedan"/>
    <vType id="vtype-vehicle34" length="5.587602145354093" mass="1438.6202804977672" accel="2.1225413909172888" decel="4.4133970336720605" emergencyDecel="11.440154494981483" minGap="9.370474869271883" vClass="passenger" emissionClass="HBEFA4/PC_petrol_Euro-6ab" color="#3498DB" guiShape="passenger/sedan"/>
    <vType id="vtype-vehicle35" length="4.40965228692626" mass="1416.8231246847586" accel="2.191979164707452" decel="4.4232408263096845" emergencyDecel="10.215669577734625" minGap="10.680539656155045" vClass="passenger" emissionClass="HBEFA4/PC_LPG_petrol_Euro-6_(LPG)" color="#3498DB" guiShape="passenger/sedan"/>
    <vType id="vtype-vehicle36" length="4.884766807016818" mass="1412.898857782251" accel="2.9891022362214867" decel="3.262309608791198" emergencyDecel="10.23488991374036" minGap="8.426388918850595" vClass="passenger" emissionClass="HBEFA4/PC_LPG_petrol_Euro-5_(LPG)" color="#3498DB" guiShape="passenger/sedan"/>
    <vType id="vtype-vehicle37" length="4.271809138603442" mass="1672.4170890521048" accel="3.5877870185419707" decel="5.098996463207271" emergencyDecel="10.061709985048076" minGap="5.087737044200394" vClass="passenger" emissionClass="HBEFA4/PC_petrol_Euro-5" color="#3498DB" guiShape="passenger/sedan"/>
    <vType id="vtype-vehicle38" length="3.232820918212241" mass="1555.5584283421783" accel="5.303281735416554" decel="3.123810565038628" emergencyDecel="11.548158423476385" minGap="6.455626850495636" vClass="passenger" emissionClass="HBEFA4/PC_petrol_Euro-4" color="#3498DB" guiShape="passenger/sedan"/>
    <vType id="vtype-vehicle39" length="6.596262976746344" mass="1966.7554048564707" accel="2.141601212666757" decel="3.796692114437626" emergencyDecel="9.999440061927048" minGap="9.806673793060401" vClass="passenger" emissionClass="HBEFA4/PC_petrol_Euro-4" color="#3498DB" guiShape="passenger/sedan"/>
    <vType id="vtype-vehicle40" length="4.488563788510866" mass="1700.4397088806845" accel="6.192678559240344" decel="3.4781618601684823" emergencyDecel="10.12468691961447" minGap="5.685160473322289" vClass="passenger" emissionClass="HBEFA4/PC_petrol_Euro-6ab" color="#3498DB" guiShape="passenger/sedan"/>
    <vType id="vtype-vehicle41" length="5.15240417263183" mass="1427.8421205433" accel="3.5052075735033537" decel="3.6343481818142824" emergencyDecel="10.857935113022235" minGap="9.562932023938558" vClass="passenger" emissionClass="HBEFA4/PC_diesel_Euro-6ab" color="#3498DB" guiShape="passenger/sedan"/>
    <vType id="vtype-vehicle42" length="2.5" mass="1320.5284931325518" accel="5.050340649417375" decel="5.55452376360576" emergencyDecel="10.6735090588659" minGap="5.483321857507368" vClass="passenger" emissionClass="HBEFA4/PC_diesel_Euro-4" color="#3498DB" guiShape="passenger/sedan"/>
    <vType id="vtype-vehicle43" length="2.8077717471121657" mass="1461.7498501771256" accel="2.290087442411804" decel="2.6304415213051153" emergencyDecel="8.27093262361112" minGap="4.6923922361500665" vClass="passenger" emissionClass="HBEFA4/PC_petrol_Euro-5" color="#3498DB" guiShape="passenger/sedan"/>
    <vType id="vtype-vehicle44" length="4.389524686028041" mass="1631.7642569588093" accel="2.1" decel="2.8856393115258627" emergencyDecel="10.305181871174014" minGap="3.9921934897541806" vClass="passenger" emissionClass="HBEFA4/PC_diesel_Euro-5" color="#3498DB" guiShape="passenger/sedan"/>
    <vType id="vtype-vehicle45" length="5.403323731874804" mass="1517.3315081314827" accel="5.246246429156557" decel="3.6076001592368168" emergencyDecel="9.481378695845782" minGap="5.197001932206654" vClass="passenger" emissionClass="HBEFA4/PC_diesel_Euro-6ab" color="#3498DB" guiShape="passenger/sedan"/>
    <vType id="vtype-vehicle46" length="5.653979059676555" mass="1403.7384388638482" accel="2.1" decel="5.061536764747829" emergencyDecel="9.506627052017492" minGap="9.261414589815578" vClass="passenger" emissionClass="HBEFA4/PC_diesel_Euro-5" color="#3498DB" guiShape="passenger/sedan"/>
    <vType id="vtype-vehicle47" length="5.586176002533895" mass="1447.4122475769957" accel="3.9325298723178626" decel="3.095872421238788" emergencyDecel="9.809347930902144" minGap="9.666830891153992" vClass="passenger" emissionClass="HBEFA4/PC_diesel_1986-1988" color="#3498DB" guiShape="passenger/sedan"/>
    <vType id="vtype-vehicle48" length="3.8288708419506863" mass="1343.6853242843363" accel="2.1" decel="2.2492774150982475" emergencyDecel="9.641537874124314" minGap="2.938760141575731" vClass="passenger" emissionClass="HBEFA4/PC_petrol_Euro-6ab" color="#3498DB" guiShape="passenger/sedan"/>
    <vType id="vtype-vehicle49" length="4.922475640174409" mass="1608.4891023393438" accel="2.982493953087256" decel="4.913126381578742" emergencyDecel="9.257069380710908" minGap="8.430626923051433" vClass="passenger" emissionClass="HBEFA4/PC_petrol_Euro-2" color="#3498DB" guiShape="passenger/sedan"/>
    <vType id="vtype-vehicle50" length="4.610466826766225" mass="1569.971467586306" accel="2.720577375495174" decel="4.540456951691862" emergencyDecel="9.683019155283368" minGap="5.650308995172195" vClass="passenger" emissionClass="HBEFA4/PC_diesel_Euro-2" color="#3498DB" guiShape="passenger/sedan"/>
    <vType id="vtype-vehicle51" length="4.0360130534253384" mass="1512.7218185412012" accel="2.9475299697322312" decel="3.706497962042487" emergencyDecel="9.358706396077611" minGap="8.162821972289809" vClass="passenger" emissionClass="HBEFA4/PC_petrol_Euro-3" color="#3498DB" guiShape="passenger/sedan"/>
    <vType id="vtype-vehicle52" length="5.645791388614394" mass="1759.599807627814" accel="2.1" decel="4.198386946155737" emergencyDecel="9.609882148972265" minGap="9.051853193646402" vClass="passenger" emissionClass="HBEFA4/PC_diesel_Euro-6ab" color="#3498DB" guiShape="passenger/sedan"/>
    <vType id="vtype-vehicle53" length="5.484180046317587" mass="1369.4493237974743" accel="3.271239435741765" decel="5.5750520322932715" emergencyDecel="9.330351824446742" minGap="6.8559876348258" vClass="passenger" emissionClass="HBEFA4/PC_diesel_Euro-6ab" color="#3498DB" guiShape="passenger/sedan"/>
    <vType id="vtype-vehicle54" length="5.202646325184931" mass="1688.7900269682411" accel="2.1" decel="4.440565898308924" emergencyDecel="10.89892445246469" minGap="8.398578034028056" vClass="passenger" emissionClass="HBEFA4/PC_petrol_PreEuro_3WCat_1987-90" color="#3498DB" guiShape="passenger/sedan"/>
    <vType id="vtype-vehicle55" length="2.8400457704028876" mass="1554.3563104106352" accel="3.057607941305664" decel="4.125748742464523" emergencyDecel="10.525933798942145" minGap="6.586652792777695" vClass="passenger" emissionClass="HBEFA4/PC_petrol_Euro-1" color="#3498DB" guiShape="passenger/sedan"/>
    <vType id="vtype-vehicle56" length="3.4350116651901503" mass="1763.3792954788812" accel="2.854406752635062" decel="3.294273537885398" emergencyDecel="10.666709225300501" minGap="9.007181371724867" vClass="passenger" emissionClass="HBEFA4/PC_petrol_Euro-4" color="#3498DB" guiShape="passenger/sedan"/>
    <vType id="vtype-vehicle57" length="3.7971147309623707" mass="1676.9519896376369" accel="2.1" decel="4.0098580979663625" emergencyDecel="10.871966434863356" minGap="9.445620618093931" vClass="passenger" emissionClass="HBEFA4/PC_diesel_Euro-5" color="#3498DB" guiShape="passenger/sedan"/>
    <vType id="vtype-vehicle58" length="3.915532415887154" mass="1390.4566324031023" accel="3.3206514613420186" decel="3.156757793262152" emergencyDecel="10.884748937488379" minGap="8.749009633620464" vClass="passenger" emissionClass="HBEFA4/PC_petrol_PreEuro_3WCat_1987-90" color="#3498DB" guiShape="passenger/sedan"/>
    <vType id="vtype-vehicle59" length="3.2411371346782523" mass="1579.072263448108" accel="4.163403514247348" decel="4.936506998359153" emergencyDecel="10.159628573713427" minGap="4.6503327076546" vClass="passenger" emissionClass="HBEFA4/PC_diesel_Euro-4" color="#3498DB" guiShape="passenger/sedan"/>
    <vType id="vtype-vehicle60" length="4.46754364866029" mass="1406.888415289537" accel="3.136788942207449" decel="2.974138592172758" emergencyDecel="8.484783117849979" minGap="13.024242248639748" vClass="passenger" emissionClass="HBEFA4/PC_petrol_PreEuro_3WCat_1987-90" color="#3498DB" guiShape="passenger/sedan"/>
    <vType id="vtype-vehicle61" length="5.930843300909419" mass="1867.7383100210968" accel="4.061626199111797" decel="2.0442733062960228" emergencyDecel="9.25456689689995" minGap="8.699031862980316" vClass="passenger" emissionClass="HBEFA4/PC_petrol_Euro-2" color="#3498DB" guiShape="passenger/sedan"/>
    <vType id="vtype-vehicle62" length="4.018409114696125" mass="1713.1984543336362" accel="2.1" decel="3.260780924827867" emergencyDecel="10.4475523272979" minGap="5.330869218220963" vClass="passenger" emissionClass="HBEFA4/PC_diesel_Euro-1" color="#3498DB" guiShape="passenger/sedan"/>
    <vType id="vtype-vehicle63" length="7.915759431554029" mass="1525.074169470316" accel="4.5794729151471225" decel="5.096007498701258" emergencyDecel="9.947569586695296" minGap="8.179669337623409" vClass="passenger" emissionClass="HBEFA4/PC_petrol_Euro-4" color="#3498DB" guiShape="passenger/sedan"/>
    <vType id="vtype-vehicle64" length="3.652024159230124" mass="1643.7850428584072" accel="2.1" decel="2.0864895648307886" emergencyDecel="10.341544179158626" minGap="6.812759631848041" vClass="passenger" emissionClass="HBEFA4/PC_petrol_Euro-6ab" color="#3498DB" guiShape="passenger/sedan"/>
    <vType id="vtype-vehicle65" length="4.383396678316436" mass="1360.7205546129926" accel="3.6775917592758915" decel="3.9790992967058463" emergencyDecel="11.880119608563325" minGap="8.678089655960587" vClass="passenger" emissionClass="HBEFA4/PC_diesel_Euro-6ab" color="#3498DB" guiShape="passenger/sedan"/>
    <vType id="vtype-vehicle66" length="4.3269619346000185" mass="1420.7569388959546" accel="2.1" decel="3.012591507764975" emergencyDecel="9.882544434992571" minGap="7.4940236273876675" vClass="passenger" emissionClass="HBEFA4/PC_diesel_Euro-4" color="#3498DB" guiShape="passenger/sedan"/>
    <vType id="vtype-vehicle67" length="4.750295287525603" mass="1285.706921278481" accel="5.780682654581419" decel="3.007929909196612" emergencyDecel="10.378269326565212" minGap="6.02223479842975" vClass="passenger" emissionClass="HBEFA4/PC_diesel_Euro-5" color="#3498DB" guiShape="passenger/sedan"/>
    <vType id="vtype-vehicle68" length="5.573904156122432" mass="1599.3187149996136" accel="2.1" decel="2" emergencyDecel="13.229357877763114" minGap="4.983038812928185" vClass="passenger" emissionClass="HBEFA4/PC_diesel_Euro-5" color="#3498DB" guiShape="passenger/sedan"/>
    <vType id="vtype-vehicle69" length="4.644181152971403" mass="1519.109511833878" accel="2.1" decel="3.2017203986034373" emergencyDecel="10.055832976690146" minGap="5.2723327316770225" vClass="passenger" emissionClass="HBEFA4/PC_BEV" color="#3498DB" guiShape="passenger/sedan"/>
    <vType id="vtype-vehicle70" length="4.262708391441916" mass="1870.6982432756784" accel="5.292263436074811" decel="3.226630697844455" emergencyDecel="11.177254345732507" minGap="6.544792372243471" vClass="passenger" emissionClass="HBEFA4/PC_petrol_Euro-3" color="#3498DB" guiShape="passenger/sedan"/>
    <vType id="vtype-vehicle71" length="5.057232608962055" mass="1607.57138185824" accel="4.341626628972614" decel="3.496975473784603" emergencyDecel="8.478007158478324" minGap="7.515316398989229" vClass="passenger" emissionClass="HBEFA4/PC_petrol_Euro-6ab" color="#3498DB" guiShape="passenger/sedan"/>
    <vType id="vtype-vehicle72" length="3.963411146050693" mass="1500.7030957391792" accel="2.1" decel="5.284420828522735" emergencyDecel="11.112021292271073" minGap="11.970654323250399" vClass="passenger" emissionClass="HBEFA4/PC_diesel_Euro-5" color="#3498DB" guiShape="passenger/sedan"/>
    <vType id="vtype-vehicle73" length="3.7954277163121692" mass="1195.7758824504551" accel="4.208579123294367" decel="3.8968376203535304" emergencyDecel="10.274486067032932" minGap="8.306313555737997" vClass="passenger" emissionClass="HBEFA4/PC_diesel_Euro-4" color="#3498DB" guiShape="passenger/sedan"/>
    <vType id="vtype-vehicle74" length="3.6254753453681743" mass="1354.7918067408475" accel="2.871023650050588" decel="2.419063872435454" emergencyDecel="9.14701280177648" minGap="5.019980419867848" vClass="passenger" emissionClass="HBEFA4/PC_petrol_Euro-5" color="#3498DB" guiShape="passenger/sedan"/>
    <vType id="vtype-vehicle75" length="4.352447228792069" mass="1549.077071183495" accel="3.6092735486210152" decel="4.962370716979435" emergencyDecel="9.334641797031155" minGap="7.945271622552115" vClass="passenger" emissionClass="HBEFA4/PC_petrol_PreEuro_3WCat_1987-90" color="#3498DB" guiShape="passenger/sedan"/>
    <vType id="vtype-vehicle76" length="3.6528214189738053" mass="1598.5084228703024" accel="3.869697454839269" decel="3.8714374192814915" emergencyDecel="9.870080133569353" minGap="6.784310548957984" vClass="passenger" emissionClass="HBEFA4/PC_petrol_Euro-6ab" color="#3498DB" guiShape="passenger/sedan"/>
    <vType id="vtype-vehicle77" length="3.9351322394925434" mass="1601.3075014635626" accel="2.1" decel="4.438804230571643" emergencyDecel="11.814115371506036" minGap="7.3207525241004445" vClass="passenger" emissionClass="HBEFA4/PC_LPG_petrol_Euro-6_(LPG)" color="#3498DB" guiShape="passenger/sedan"/>
    <vType id="vtype-vehicle78" length="5.062692009951339" mass="1320.0755969197512" accel="5.376058292264201" decel="4.163250713717916" emergencyDecel="9.57981016469862" minGap="6.144629660385245" vClass="passenger" emissionClass="HBEFA4/PC_petrol_Euro-1" color="#3498DB" guiShape="passenger/sedan"/>
    <vType id="vtype-vehicle79" length="6.29414357639061" mass="1672.9158484745142" accel="3.9998118454925167" decel="4.712382475912664" emergencyDecel="8.840284879187772" minGap="8.924319820766728" vClass="passenger" emissionClass="HBEFA4/PC_PHEV_petrol_Euro-6d_(El)" color="#3498DB" guiShape="passenger/sedan"/>
    <vType id="vtype-vehicle80" length="3.1082964065375642" mass="1490.0004598067433" accel="9.609576778494844" decel="2.8733300247676796" emergencyDecel="10.846717438938665" minGap="3.9535232448555835" vClass="passenger" emissionClass="HBEFA4/PC_petrol_Euro-6ab" color="#3498DB" guiShape="passenger/sedan"/>
    <vType id="vtype-vehicle81" length="4.411037646964232" mass="1710.4254477604386" accel="2.1" decel="4.293436949605364" emergencyDecel="9.854404044828026" minGap="7.038139229326106" vClass="passenger" emissionClass="HBEFA4/PC_diesel_Euro-3" color="#3498DB" guiShape="passenger/sedan"/>
    <vType id="vtype-vehicle82" length="3.2132642756400065" mass="1272.0072415301674" accel="2.1" decel="4.3216884340921675" emergencyDecel="9.17597879741453" minGap="4.8507014410459615" vClass="passenger" emissionClass="HBEFA4/PC_PHEV_petrol_Euro-6d_(El)" color="#3498DB" guiShape="passenger/sedan"/>
    <vType id="vtype-vehicle83" length="5.948989995432431" mass="1236.4813274123874" accel="2.1" decel="4.672822330166731" emergencyDecel="9.07773099788856" minGap="7.014524236263055" vClass="passenger" emissionClass="HBEFA4/PC_petrol_PreEuro_3WCat_1987-90" color="#3498DB" guiShape="passenger/sedan"/>
    <vType id="vtype-vehicle84" length="3.698682409861287" mass="1707.2335015813371" accel="5.622449136456295" decel="4.655516364645473" emergencyDecel="10.403096771858916" minGap="7.79120714228451" vClass="passenger" emissionClass="HBEFA4/PC_diesel_Euro-4" color="#3498DB" guiShape="passenger/sedan"/>
    <vType id="vtype-vehicle85" length="4.745344482386375" mass="1515.2052941875222" accel="5.99319495433525" decel="4.493253698655877" emergencyDecel="9.650399281250293" minGap="8.379879715793168" vClass="passenger" emissionClass="HBEFA4/PC_diesel_Euro-6ab" color="#3498DB" guiShape="passenger/sedan"/>
    <vType id="vtype-vehicle86" length="3.516149590685588" mass="1590.7246903239072" accel="5.0576094126126385" decel="3.068451108241897" emergencyDecel="11.659306723732044" minGap="5.776776982714086" vClass="passenger" emissionClass="HBEFA4/PC_petrol_Euro-4" color="#3498DB" guiShape="passenger/sedan"/>
    <vType id="vtype-vehicle87" length="3.944076802972024" mass="1379.6259653500492" accel="2.1" decel="3.4851680314888176" emergencyDecel="10.522266337002584" minGap="4.325110351469895" vClass="passenger" emissionClass="HBEFA4/PC_petrol_Euro-6ab" color="#3498DB" guiShape="passenger/sedan"/>
    <vType id="vtype-vehicle88" length="3.710477501786176" mass="1937.5215079509626" accel="6.314096147879235" decel="4.739839009119304" emergencyDecel="9.525236200717293" minGap="6.935996717037882" vClass="passenger" emissionClass="HBEFA4/PC_petrol_Euro-6ab" color="#3498DB" guiShape="passenger/sedan"/>
    <vType id="vtype-vehicle89" length="4.149462436344319" mass="1974.8710949856343" accel="2.1" decel="2.5058885731185527" emergencyDecel="9.8486618819138" minGap="7.6687656904057855" vClass="passenger" emissionClass="HBEFA4/PC_petrol_Euro-6ab" color="#3498DB" guiShape="passenger/sedan"/>
    <vType id="vtype-vehicle90" length="4.036145960763374" mass="1827.735690566229" accel="6.807600009001179" decel="4.224822221673859" emergencyDecel="9.215171462316842" minGap="8.774664971388008" vClass="passenger" emissionClass="HBEFA4/PC_petrol_Euro-4" color="#3498DB" guiShape="passenger/sedan"/>
    <vType id="vtype-vehicle91" length="4.473408067407297" mass="1516.0268147277427" accel="2.1539192314156317" decel="3.269817443342116" emergencyDecel="8.477436891029818" minGap="10.981108743926137" vClass="passenger" emissionClass="HBEFA4/PC_diesel_Euro-5" color="#3498DB" guiShape="passenger/sedan"/>
    <vType id="vtype-vehicle92" length="5.1276604081834405" mass="1402.9616262434095" accel="2.1" decel="2.7486864714853745" emergencyDecel="10.457224447501181" minGap="5.3515552494441625" vClass="passenger" emissionClass="HBEFA4/PC_petrol_Euro-4" color="#3498DB" guiShape="passenger/sedan"/>
    <vType id="vtype-vehicle93" length="5.421520925874701" mass="1640.9156965537627" accel="2.1" decel="3.5468372756006588" emergencyDecel="9.156052628547275" minGap="10.855988022077783" vClass="passenger" emissionClass="HBEFA4/PC_diesel_Euro-6ab" color="#3498DB" guiShape="passenger/sedan"/>
    <vType id="vtype-vehicle94" length="3.7137543426321713" mass="1958.280462572797" accel="2.1" decel="2" emergencyDecel="11.7140094943839" minGap="7.114832650122439" vClass="passenger" emissionClass="HBEFA4/PC_LPG_petrol_Euro-2_(LPG)" color="#3498DB" guiShape="passenger/sedan"/>
    <vType id="vtype-vehicle95" length="5.602904503546787" mass="1466.3763957975573" accel="4.938612347055958" decel="3.9811083255392004" emergencyDecel="9.622830018272213" minGap="9.04854136367966" vClass="passenger" emissionClass="HBEFA4/PC_petrol_Euro-4" color="#3498DB" guiShape="passenger/sedan"/>
    <vType id="vtype-vehicle96" length="6.951275243511836" mass="1567.4432631535647" accel="7.305408952763015" decel="2.9714449344008105" emergencyDecel="11.05885292263912" minGap="3.594387504246071" vClass="passenger" emissionClass="HBEFA4/PC_BEV" color="#3498DB" guiShape="passenger/sedan"/>
    <vType id="vtype-vehicle97" length="3.608519712431697" mass="1720.9059772910662" accel="2.1" decel="4.23896183061864" emergencyDecel="9.748884777563708" minGap="5.188901616180217" vClass="passenger" emissionClass="HBEFA4/PC_diesel_Euro-4" color="#3498DB" guiShape="passenger/sedan"/>
    <vType id="vtype-vehicle98" length="4.1322984058193155" mass="1468.5581606394974" accel="2.1" decel="6.588479540973733" emergencyDecel="11.211672876985805" minGap="8.725997110870402" vClass="passenger" emissionClass="HBEFA4/PC_diesel_Euro-4" color="#3498DB" guiShape="passenger/sedan"/>