<?xml version="1.0" ?>
<routes>
    <vType id="vtype-vehicle0" length="4.833472419105253" mass="1670.9650700759769" accel="2.1" decel="3.7548800785216474" emergencyDecel="8.370095117046198" minGap="11.115626924776578" vClass="passenger" emissionClass="HBEFA4/PC_petrol_Euro-5" color="#3498DB" guiShape="passenger/sedan"/>
    <vType id="vtype-vehicle1" length="2.8294698568112597" mass="1708.609140734814" accel="5.741154362566057" decel="4.511382574104767" emergencyDecel="5.22277287166836" minGap="8.162802290690053" vClass="passenger" emissionClass="HBEFA4/PC_petrol_Euro-6ab" color="#3498DB" guiShape="passenger/sedan"/>
    <vType id="vtype-vehicle2" length="4.659865027653616" mass="1494.6888541191238" accel="7.913680003875378" decel="1.347675998226825" emergencyDecel="7.625930897655381" minGap="7.014370326055654" vClass="passenger" emissionClass="HBEFA4/PC_diesel_Euro-4" color="#3498DB" guiShape="passenger/sedan"/>
    <vType id="vtype-vehicle3" length="5.944687716731827" mass="1770.3346187779575" accel="2.2473038533647447" decel="3.13119958460446" emergencyDecel="6.014515018336071" minGap="10.466320653862276" vClass="passenger" emissionClass="HBEFA4/PC_diesel_Euro-5" color="#3498DB" guiShape="passenger/sedan"/>
    <vType id="vtype-vehicle4" length="4.285403916603291" mass="1509.1907024550746" accel="2.1" decel="4.01436798103143" emergencyDecel="3.5489991608994402" minGap="6.575865246872623" vClass="passenger" emissionClass="HBEFA4/PC_petrol_Euro-4" color="#3498DB" guiShape="passenger/sedan"/>
    <vType id="vtype-vehicle5" length="4.2459372682718355" mass="1556.6735286160767" accel="6.306701224420665" decel="3.608730862546093" emergencyDecel="6.5676089288723025" minGap="6.157793788160522" vClass="passenger" emissionClass="HBEFA4/PC_diesel_Euro-3" color="#3498DB" guiShape="passenger/sedan"/>
    <vType id="vtype-vehicle6" length="5.383006634281964" mass="1817.1632706277405" accel="4.298959552909695" decel="2.6827386030019613" emergencyDecel="5.484896156327348" minGap="10.825275329117844" vClass="passenger" emissionClass="HBEFA4/PC_diesel_Euro-6ab" color="#3498DB" guiShape="passenger/sedan"/>
    <vType id="vtype-vehicle7" length="7.301381791475718" mass="1828.1978014605036" accel="2.1" decel="1.233776860107836" emergencyDecel="5.19466780128197" minGap="9.3160433243714" vClass="passenger" emissionClass="HBEFA4/PC_petrol_Euro-4" color="#3498DB" guiShape="passenger/sedan"/>
    <vType id="vtype-vehicle8" length="5.248456552837113" mass="1497.6169233063706" accel="2.1" decel="4.194884777562148" emergencyDecel="7.16728735549372" minGap="6.623705039947163" vClass="passenger" emissionClass="HBEFA4/PC_petrol_Euro-5" color="#3498DB" guiShape="passenger/sedan"/>
    <vType id="vtype-vehicle9" length="5.225118987891177" mass="1798.075191037098" accel="3.7318754617155356" decel="2.7551298747360886" emergencyDecel="6.985985149417315" minGap="8.319428834218554" vClass="passenger" emissionClass="HBEFA4/PC_diesel_Euro-6ab" color="#3498DB" guiShape="passenger/sedan"/>
    <vType id="vtype-vehicle10" length="6.821959014939733" mass="1393.7790033327235" accel="6.7061751993357905" decel="2.748486947835995" emergencyDecel="6.650498981420268" minGap="7.300886170264097" vClass="passenger" emissionClass="HBEFA4/PC_diesel_Euro-4" color="#3498DB" guiShape="passenger/sedan"/>
    <vType id="vtype-vehicle11" length="5.564576904720359" mass="1352.64896753034" accel="2.1" decel="2.461640064382251" emergencyDecel="3.503959618179744" minGap="5.439242440396499" vClass="passenger" emissionClass="HBEFA4/PC_petrol_PreEuro_3WCat_1987-90" color="#3498DB" guiShape="passenger/sedan"/>
    <vType id="vtype-vehicle12" length="5.786274814792703" mass="1498.1172908274234" accel="2.788478056071155" decel="3.132723094919002" emergencyDecel="7.2472784624539734" minGap="2.0009183893249602" vClass="passenger" emissionClass="HBEFA4/PC_petrol_Euro-4" color="#3498DB" guiShape="passenger/sedan"/>
    <vType id="vtype-vehicle13" length="3.95188279118772" mass="1477.2957827004693" accel="3.6008817300457423" decel="3.017811058154417" emergencyDecel="5.662672131738736" minGap="5.249825624818849" vClass="passenger" emissionClass="HBEFA4/PC_diesel_Euro-6ab" color="#3498DB" guiShape="passenger/sedan"/>
    <vType id="vtype-vehicle14" length="2.8585099368227014" mass="1879.1933504684234" accel="3.308954218787193" decel="3.262704407200687" emergencyDecel="5.412234752002977" minGap="6.522837931209295" vClass="passenger" emissionClass="HBEFA4/PC_petrol_Euro-4" color="#3498DB" guiShape="passenger/sedan"/>
    <vType id="vtype-vehicle15" length="4.751283979533505" mass="1144.67261875149" accel="7.29428820175254" decel="3.983660174291299" emergencyDecel="6.459566012500155" minGap="4.913366002912594" vClass="passenger" emissionClass="HBEFA4/PC_diesel_Euro-6ab" color="#3498DB" guiShape="passenger/sedan"/>
    <vType id="vtype-vehicle16" length="3.9962962077672466" mass="1595.4735116674299" accel="2.1" decel="4.511358317336977" emergencyDecel="6.155609468759046" minGap="3.6114269238586787" vClass="passenger" emissionClass="HBEFA4/PC_diesel_Euro-6ab" color="#3498DB" guiShape="passenger/sedan"/>
    <vType id="vtype-vehicle17" length="4.0381332851336325" mass="1570.0309658875244" accel="2.1" decel="2.6986160844367175" emergencyDecel="4.677607080193845" minGap="7.994503020465238" vClass="passenger" emissionClass="HBEFA4/PC_petrol_Euro-6ab" color="#3498DB" guiShape="passenger/sedan"/>
    <vType id="vtype-vehicle18" length="4.0384734414419565" mass="1658.4111420888596" accel="2.378999688313423" decel="4.083047522624583" emergencyDecel="4.66460047781844" minGap="4.344516166915737" vClass="passenger" emissionClass="HBEFA4/PC_LPG_petrol_Euro-4_(LPG)" color="#3498DB" guiShape="passenger/sedan"/>
    <vType id="vtype-vehicle19" length="3.712381172421687" mass="1773.1347267882843" accel="2.1" decel="3.1817300817481087" emergencyDecel="5.918329194067155" minGap="6.8832429759169775" vClass="passenger" emissionClass="HBEFA4/PC_LPG_petrol_Euro-5_(LPG)" color="#3498DB" guiShape="passenger/sedan"/>
    <vType id="vtype-vehicle20" length="4.4650914510207205" mass="1111.8266397259565" accel="4.953360278603315" decel="3.3062491460335934" emergencyDecel="6.614640865403784" minGap="8.000521868887404" vClass="passenger" emissionClass="HBEFA4/PC_petrol_Euro-3" color="#3498DB" guiShape="passenger/sedan"/>
    <vType id="vtype-vehicle21" length="5.264271489270258" mass="1290.6795585591005" accel="2.75363178453954" decel="3.4994144814019466" emergencyDecel="6.690364654558052" minGap="5.797639182193292" vClass="passenger" emissionClass="HBEFA4/PC_petrol_Euro-6ab" color="#3498DB" guiShape="passenger/sedan"/>
    <vType id="vtype-vehicle22" length="2.7637203379682167" mass="1485.243214281916" accel="3.1591829983496216" decel="2.7068859622215427" emergencyDecel="6.372525247370579" minGap="7.555452761759218" vClass="passenger" emissionClass="HBEFA4/PC_petrol_Euro-3" color="#3498DB" guiShape="passenger/sedan"/>
    <vType id="vtype-vehicle23" length="5.548010644438825" mass="1557.4309095282192" accel="3.616190343503529" decel="2.2679748677461884" emergencyDecel="5.066802951843927" minGap="5.614295883040775" vClass="passenger" emissionClass="HBEFA4/PC_diesel_Euro-6ab" color="#3498DB" guiShape="passenger/sedan"/>
    <vType id="vtype-vehicle24" length="5.264580485353582" mass="1710.5061968119182" accel="3.8697730252141014" decel="4.307246003662851" emergencyDecel="5.6082522986454455" minGap="3.912298068090832" vClass="passenger" emissionClass="HBEFA4/PC_diesel_1986-1988" color="#3498DB" guiShape="passenger/sedan"/>
    <vType id="vtype-vehicle25" length="3.3668718606571426" mass="1427.3554457301198" accel="2.1" decel="1.3318098742213014" emergencyDecel="6.913036387138712" minGap="8.413457979966315" vClass="passenger" emissionClass="HBEFA4/PC_petrol_Euro-1" color="#3498DB" guiShape="passenger/sedan"/>
    <vType id="vtype-vehicle26" length="6.533107666572231" mass="1519.3586456224673" accel="3.3752728539081884" decel="1.7354471477841247" emergencyDecel="5.748970489518364" minGap="4.344213690427566" vClass="passenger" emissionClass="HBEFA4/PC_diesel_Euro-5" color="#3498DB" guiShape="passenger/sedan"/>
    <vType id="vtype-vehicle27" length="3.724323881361869" mass="1330.6587865232727" accel="4.670576427638443" decel="0.8536146799621624" emergencyDecel="5.845462216128127" minGap="8.907028537810808" vClass="passenger" emissionClass="HBEFA4/PC_diesel_Euro-2" color="#3498DB" guiShape="passenger/sedan"/>
    <vType id="vtype-vehicle28" length="2.5" mass="1470.3339553444491" accel="2.1" decel="0.05662152077240812" emergencyDecel="7.483975364053696" minGap="3.709468334897546" vClass="passenger" emissionClass="HBEFA4/PC_diesel_Euro-5" color="#3498DB" guiShape="passenger/sedan"/>
    <vType id="vtype-vehicle29" length="4.552912199782984" mass="1851.1193781091874" accel="3.908267955088247" decel="1.445211730045454" emergencyDecel="6.528561950737426" minGap="4.245638353978688" vClass="passenger" emissionClass="HBEFA4/PC_petrol_Euro-6ab" color="#3498DB" guiShape="passenger/sedan"/>
    <vType id="vtype-vehicle30" length="6.018383876052221" mass="1638.9027581866444" accel="2.4933531363187877" decel="2.22811747116844" emergencyDecel="6.45350938095692" minGap="9.622885298652747" vClass="passenger" emissionClass="HBEFA4/PC_petrol_PreEuro_3WCat_1987-90" color="#3498DB" guiShape="passenger/sedan"/>
    <vType id="vtype-vehicle31" length="4.910014360155003" mass="1890.75330096901" accel="3.3225445403530913" decel="3.5376836000338225" emergencyDecel="6.14526799263567" minGap="5.732692777998879" vClass="passenger" emissionClass="HBEFA4/PC_diesel_Euro-3" color="#3498DB" guiShape="passenger/sedan"/>
    <vType id="vtype-vehicle32" length="5.72955315409663" mass="1633.1132522429186" accel="2.1" decel="2.3385877720351904" emergencyDecel="4.413517545336328" minGap="5.144846923606492" vClass="passenger" emissionClass="HBEFA4/PC_PHEV_petrol_Euro-6d_(El)" color="#3498DB" guiShape="passenger/sedan"/>
    <vType id="vtype-vehicle33" length="4.503302479502941" mass="1473.1283639354249" accel="4.631430421093117" decel="2.6676539693447046" emergencyDecel="5.587757923080714" minGap="5.509530639334342" vClass="passenger" emissionClass="HBEFA4/PC_diesel_Euro-3" color="#3498DB" guiShape="passenger/sedan"/>
    <vType id="vtype-vehicle34" length="4.314210070304188" mass="1473.061904569327" accel="6.348629902908991" decel="3.4654697585106806" emergencyDecel="5.876484260366344" minGap="8.369623528284198" vClass="passenger" emissionClass="HBEFA4/PC_petrol_PreEuro_3WCat_1987-90" color="#3498DB" guiShape="passenger/sedan"/>
    <vType id="vtype-vehicle35" length="6.133384181533981" mass="1551.5855021343796" accel="5.185676471735675" decel="3.9745486692956087" emergencyDecel="5.559198281061964" minGap="8.989942286244116" vClass="passenger" emissionClass="HBEFA4/PC_petrol_Euro-6ab" color="#3498DB" guiShape="passenger/sedan"/>
    <vType id="vtype-vehicle36" length="6.4222952371532145" mass="1387.935640509948" accel="5.503541955008913" decel="3.882776594856725" emergencyDecel="5.2574843957768795" minGap="8.194405426819385" vClass="passenger" emissionClass="HBEFA4/PC_diesel_Euro-4" color="#3498DB" guiShape="passenger/sedan"/>
    <vType id="vtype-vehicle37" length="5.15750229225697" mass="1605.441658597923" accel="2.1" decel="3.283741038345007" emergencyDecel="6.92867826086928" minGap="6.137243964832164" vClass="passenger" emissionClass="HBEFA4/PC_diesel_Euro-6ab" color="#3498DB" guiShape="passenger/sedan"/>
    <vType id="vtype-vehicle38" length="4.2005206402731865" mass="1775.3962904177804" accel="2.1" decel="2.061350211798358" emergencyDecel="5.504346874282412" minGap="6.856997577186913" vClass="passenger" emissionClass="HBEFA4/PC_petrol_Euro-2" color="#3498DB" guiShape="passenger/sedan"/>
    <vType id="vtype-vehicle39" length="4.923988308526092" mass="1382.1864725505611" accel="3.9368178791297677" decel="3.862119013927965" emergencyDecel="5.688373466367556" minGap="9.039090607140716" vClass="passenger" emissionClass="HBEFA4/PC_diesel_Euro-6ab" color="#3498DB" guiShape="passenger/sedan"/>
    <vType id="vtype-vehicle40" length="4.8391475697534" mass="1575.3470879078411" accel="3.012673520631368" decel="0.9374980666693618" emergencyDecel="4.464943852213821" minGap="5.924019391030191" vClass="passenger" emissionClass="HBEFA4/PC_diesel_Euro-4" color="#3498DB" guiShape="passenger/sedan"/>
    <vType id="vtype-vehicle41" length="5.291164080253486" mass="1693.643736895554" accel="4.155291116929279" decel="1.4429953673985416" emergencyDecel="4.800373311490302" minGap="6.882498738934506" vClass="passenger" emissionClass="HBEFA4/PC_petrol_Euro-4" color="#3498DB" guiShape="passenger/sedan"/>
    <vType id="vtype-vehicle42" length="4.719366319752867" mass="1635.5892390646304" accel="2.9168470198230065" decel="3.211879929839634" emergencyDecel="7.026008050246096" minGap="7.613281354542576" vClass="passenger" emissionClass="HBEFA4/PC_petrol_Euro-4" color="#3498DB" guiShape="passenger/sedan"/>
    <vType id="vtype-vehicle43" length="4.491458244085764" mass="1388.1273309120782" accel="4.57456608340491" decel="2.1390016007076813" emergencyDecel="6.813309652010224" minGap="6.919648717911876" vClass="passenger" emissionClass="HBEFA4/PC_CNG_petrol_Euro-5_(CNG)" color="#3498DB" guiShape="passenger/sedan"/>
    <vType id="vtype-vehicle44" length="5.312115155133297" mass="1605.118730586071" accel="4.267081518663153" decel="1.9688943162329713" emergencyDecel="6.756005700466967" minGap="5.391128474311511" vClass="passenger" emissionClass="HBEFA4/PC_LPG_petrol_Euro-4_(LPG)" color="#3498DB" guiShape="passenger/sedan"/>
    <vType id="vtype-vehicle45" length="3.978087088831539" mass="1274.5279523149875" accel="2.1" decel="1.7289609488613622" emergencyDecel="5.647765696078122" minGap="9.921030586149978" vClass="passenger" emissionClass="HBEFA4/PC_petrol_Euro-4" color="#3498DB" guiShape="passenger/sedan"/>
    <vType id="vtype-vehicle46" length="5.267771934084903" mass="1738.6355897549265" accel="3.1880087869971394" decel="3.7214798439755614" emergencyDecel="7.671941893298371" minGap="9.487407791593814" vClass="passenger" emissionClass="HBEFA4/PC_diesel_Euro-5" color="#3498DB" guiShape="passenger/sedan"/>
    <vType id="vtype-vehicle47" length="5.169791400337852" mass="1441.0753568363866" accel="2.1" decel="1.3076041605934048" emergencyDecel="4.639164232789268" minGap="10.704850195501239" vClass="passenger" emissionClass="HBEFA4/PC_diesel_Euro-6ab" color="#3498DB" guiShape="passenger/sedan"/>
    <vType id="vtype-vehicle48" length="3.4310896313659263" mass="1622.5559167685756" accel="2.1" decel="3.600449006564438" emergencyDecel="8.10300280530009" minGap="7.923913651221837" vClass="passenger" emissionClass="HBEFA4/PC_petrol_Euro-6ab" color="#3498DB" guiShape="passenger/sedan"/>
    <vType id="vtype-vehicle49" length="6.294884470718545" mass="1644.1348096063307" accel="3.7653581872589554" decel="1.6736912732218567" emergencyDecel="4.963034261214595" minGap="6.5452227665234535" vClass="passenger" emissionClass="HBEFA4/PC_diesel_Euro-6ab" color="#3498DB" guiShape="passenger/sedan"/>
    <vType id="vtype-vehicle50" length="4.579313446087447" mass="1635.816829494636" accel="6.025891640684989" decel="1.9795270890701822" emergencyDecel="5.337500867653639" minGap="10.290294828481883" vClass="passenger" emissionClass="HBEFA4/PC_petrol_Euro-3" color="#3498DB" guiShape="passenger/sedan"/>
    <vType id="vtype-vehicle51" length="3.2725184249562953" mass="1355.3451546280949" accel="3.786700323231536" decel="2.006525115150002" emergencyDecel="6.627355314256217" minGap="9.888214476704524" vClass="passenger" emissionClass="HBEFA4/PC_petrol_Euro-4" color="#3498DB" guiShape="passenger/sedan"/>
    <vType id="vtype-vehicle52" length="3.4092224101264144" mass="1761.4630337888161" accel="2.1" decel="2.7537385421905225" emergencyDecel="5.82894168769337" minGap="7.266571552804557" vClass="passenger" emissionClass="HBEFA4/PC_diesel_Euro-6ab" color="#3498DB" guiShape="passenger/sedan"/>
    <vType id="vtype-vehicle53" length="4.1530486689706345" mass="1991.9672570480118" accel="5.120235137049509" decel="3.2760594084237415" emergencyDecel="6.100864977643572" minGap="7.6418302409613315" vClass="passenger" emissionClass="HBEFA4/PC_diesel_Euro-4" color="#3498DB" guiShape="passenger/sedan"/>
    <vType id="vtype-vehicle54" length="3.2602226103505494" mass="1944.118117521916" accel="3.024884533154358" decel="3.284163142176097" emergencyDecel="4.969405061581238" minGap="6.230386295965257" vClass="passenger" emissionClass="HBEFA4/PC_diesel_Euro-6ab" color="#3498DB" guiShape="passenger/sedan"/>
    <vType id="vtype-vehicle55" length="4.21811475313345" mass="1269.2517747665274" accel="6.630231883135142" decel="4.360565165508933" emergencyDecel="5.988931402881856" minGap="5.660700144321818" vClass="passenger" emissionClass="HBEFA4/PC_petrol_Euro-6ab" color="#3498DB" guiShape="passenger/sedan"/>
    <vType id="vtype-vehicle56" length="3.352288005485086" mass="1503.4224622765723" accel="2.1" decel="3.7102681677503297" emergencyDecel="6.561269534248752" minGap="5.628152786327515" vClass="passenger" emissionClass="HBEFA4/PC_petrol_PreEuro_3WCat_1987-90" color="#3498DB" guiShape="passenger/sedan"/>
    <vType id="vtype-vehicle57" length="4.290261076076492" mass="1500.4542134171238" accel="2.658472708824493" decel="3.0943652362590406" emergencyDecel="5.230600762948811" minGap="7.724449520992905" vClass="passenger" emissionClass="HBEFA4/PC_diesel_Euro-5" color="#3498DB" guiShape="passenger/sedan"/>
    <vType id="vtype-vehicle58" length="3.8734467902864207" mass="1560.0278051235405" accel="2.909218536903263" decel="3.634804406452731" emergencyDecel="5.991596221422629" minGap="5.374321848120328" vClass="passenger" emissionClass="HBEFA4/PC_diesel_Euro-6ab" color="#3498DB" guiShape="passenger/sedan"/>
    <vType id="vtype-vehicle59" length="3.77757673922383" mass="1462.5660424013054" accel="2.547274127176378" decel="3.1553073618371594" emergencyDecel="6.546252182476563" minGap="4.467326086489166" vClass="passenger" emissionClass="HBEFA4/PC_diesel_Euro-4" color="#3498DB" guiShape="passenger/sedan"/>
    <vType id="vtype-vehicle60" length="4.068315019998504" mass="1796.545479111686" accel="2.1009953393743794" decel="2.4980937112399846" emergencyDecel="5.504110283437186" minGap="5.264921484345653" vClass="passenger" emissionClass="HBEFA4/PC_diesel_Euro-4" color="#3498DB" guiShape="passenger/sedan"/>
    <vType id="vtype-vehicle61" length="5.412890203384872" mass="1281.441078598174" accel="2.7746956108559853" decel="3.9765068398094043" emergencyDecel="4.690322662592049" minGap="5.175995826145865" vClass="passenger" emissionClass="HBEFA4/PC_diesel_Euro-6ab" color="#3498DB" guiShape="passenger/sedan"/>
    <vType id="vtype-vehicle62" length="3.8033878296899197" mass="1735.8455789502787" accel="3.6619815995837848" decel="3.341024540621804" emergencyDecel="7.364713319751719" minGap="5.841508290321652" vClass="passenger" emissionClass="HBEFA4/PC_diesel_Euro-6ab" color="#3498DB" guiShape="passenger/sedan"/>
    <vType id="vtype-vehicle63" length="4.360251793042259" mass="1554.737935061596" accel="2.1" decel="3.785562456011479" emergencyDecel="5.8081896551168715" minGap="10.911964298756436" vClass="passenger" emissionClass="HBEFA4/PC_petrol_Euro-5" color="#3498DB" guiShape="passenger/sedan"/>
    <vType id="vtype-vehicle64" length="5.600455141423105" mass="2023.8766919347863" accel="2.1198058494899312" decel="3.3274987417437014" emergencyDecel="5.132937434824582" minGap="7.147544587496721" vClass="passenger" emissionClass="HBEFA4/PC_petrol_Euro-6ab" color="#3498DB" guiShape="passenger/sedan"/>
    <vType id="vtype-vehicle65" length="4.6459289236283645" mass="1257.0190499626335" accel="3.2175424462859685" decel="4.666771920969811" emergencyDecel="6.465356189557255" minGap="9.342982299535384" vClass="passenger" emissionClass="HBEFA4/PC_diesel_Euro-4" color="#3498DB" guiShape="passenger/sedan"/>
    <vType id="vtype-vehicle66" length="6.246616931456945" mass="1534.2361241197702" accel="5.631952240657942" decel="2.7828843039456252" emergencyDecel="7.713224517861056" minGap="6.581697637184371" vClass="passenger" emissionClass="HBEFA4/PC_petrol_Euro-6ab" color="#3498DB" guiShape="passenger/sedan"/>
    <vType id="vtype-vehicle67" length="3.5766617799928997" mass="1957.5815848935738" accel="4.870597528392003" decel="4.120755782143787" emergencyDecel="6.090655319010311" minGap="9.408051751432895" vClass="passenger" emissionClass="HBEFA4/PC_diesel_Euro-6ab" color="#3498DB" guiShape="passenger/sedan"/>
    <vType id="vtype-vehicle68" length="4.537351378441159" mass="1544.5191226066636" accel="8.743099920598336" decel="2.132084948336089" emergencyDecel="5.09324443901074" minGap="6.462852171279515" vClass="passenger" emissionClass="HBEFA4/PC_LPG_petrol_Euro-2_(LPG)" color="#3498DB" guiShape="passenger/sedan"/>
    <vType id="vtype-vehicle69" length="3.808558004633764" mass="1393.5645687226174" accel="2.9848886600353595" decel="2.0704970305223434" emergencyDecel="5.276811432403222" minGap="6.485167678979193" vClass="passenger" emissionClass="HBEFA4/PC_petrol_Euro-6ab" color="#3498DB" guiShape="passenger/sedan"/>
    <vType id="vtype-vehicle70" length="4.818788880910647" mass="1539.0683550789076" accel="3.419520411410718" decel="3.9549423369123415" emergencyDecel="6.340473327316534" minGap="4.232176576953529" vClass="passenger" emissionClass="HBEFA4/PC_diesel_Euro-4" color="#3498DB" guiShape="passenger/sedan"/>
    <vType id="vtype-vehicle71" length="3.957129365778587" mass="1745.4810760681644" accel="4.711488272208486" decel="2.5523730200154957" emergencyDecel="4.964318910567732" minGap="4.407203034008133" vClass="passenger" emissionClass="HBEFA4/PC_diesel_Euro-6ab" color="#3498DB" guiShape="passenger/sedan"/>
    <vType id="vtype-vehicle72" length="4.563709009845607" mass="1391.3488437899048" accel="4.274930327180648" decel="2.1884800837192113" emergencyDecel="5.367381063276292" minGap="6.976500430654708" vClass="passenger" emissionClass="HBEFA4/PC_diesel_Euro-6ab" color="#3498DB" guiShape="passenger/sedan"/>
    <vType id="vtype-vehicle73" length="4.437355472925987" mass="1652.42144699307" accel="4.623491968397549" decel="0.9620532430082469" emergencyDecel="5.612736474471314" minGap="4.980475694182128" vClass="passenger" emissionClass="HBEFA4/PC_petrol_PreEuro_3WCat_1987-90" color="#3498DB" guiShape="passenger/sedan"/>
    <vType id="vtype-vehicle74" length="5.871542309247699" mass="1308.04146342396" accel="2.1" decel="3.6471956967571635" emergencyDecel="6.839891111247867" minGap="7.374836839961442" vClass="passenger" emissionClass="HBEFA4/PC_LPG_petrol_Euro-4_(LPG)" color="#3498DB" guiShape="passenger/sedan"/>
    <vType id="vtype-vehicle75" length="5.835755046594201" mass="1607.2905687546613" accel="2.5737054471486878" decel="4.095221999930184" emergencyDecel="5.582714738530771" minGap="4.7829380379476" vClass="passenger" emissionClass="HBEFA4/PC_diesel_Euro-5" color="#3498DB" guiShape="passenger/sedan"/>
    <vType id="vtype-vehicle76" length="3.0442978891805836" mass="1617.715964817178" accel="4.145935494039098" decel="3.2942189119882848" emergencyDecel="6.273526192409671" minGap="5.539624764559637" vClass="passenger" emissionClass="HBEFA4/PC_petrol_Euro-4" color="#3498DB" guiShape="passenger/sedan"/>
    <vType id="vtype-vehicle77" length="3.821540314625989" mass="1600.066215283324" accel="8.33534309085174" decel="3.5909210923140265" emergencyDecel="6.580490746600787" minGap="4.727320238977696" vClass="passenger" emissionClass="HBEFA4/PC_diesel_Euro-4" color="#3498DB" guiShape="passenger/sedan"/>
    <vType id="vtype-vehicle78" length="5.135856305231144" mass="1516.0590998318803" accel="3.560424301424148" decel="2.7440260243352235" emergencyDecel="5.9832188954234935" minGap="4.471836641336748" vClass="passenger" emissionClass="HBEFA4/PC_petrol_Euro-4" color="#3498DB" guiShape="passenger/sedan"/>
    <vType id="vtype-vehicle79" length="4.4224380746037" mass="1411.615556568123" accel="2.78794845622916" decel="1.2606407416038894" emergencyDecel="4.234127160328124" minGap="10.872766310074919" vClass="passenger" emissionClass="HBEFA4/PC_LPG_petrol_Euro-5_(LPG)" color="#3498DB" guiShape="passenger/sedan"/>
    <vType id="vtype-vehicle80" length="5.901923095699795" mass="1681.7604027795194" accel="4.800274056596154" decel="4.563391977504912" emergencyDecel="5.237339402968243" minGap="8.228480900264849" vClass="passenger" emissionClass="HBEFA4/PC_petrol_PreEuro_3WCat_1987-90" color="#3498DB" guiShape="passenger/sedan"/>
    <vType id="vtype-vehicle81" length="4.3007590557836135" mass="1878.3027883143866" accel="4.531871518299986" decel="2.606834515982205" emergencyDecel="5.286965802381177" minGap="9.397648689269161" vClass="passenger" emissionClass="HBEFA4/PC_diesel_Euro-2" color="#3498DB" guiShape="passenger/sedan"/>
    <vType id="vtype-vehicle82" length="3.0604549604847824" mass="1874.8079059523739" accel="3.0390865247220162" decel="5.125183888281007" emergencyDecel="6.908448521197456" minGap="6.201884358582193" vClass="passenger" emissionClass="HBEFA4/PC_diesel_Euro-3" color="#3498DB" guiShape="passenger/sedan"/>
    <vType id="vtype-vehicle83" length="4.57536434547745" mass="1374.998968678885" accel="2.1" decel="2.045111460237702" emergencyDecel="7.455047373354931" minGap="7.803979138551695" vClass="passenger" emissionClass="HBEFA4/PC_PHEV_petrol_Euro-6d_(El)" color="#3498DB" guiShape="passenger/sedan"/>
    <vType id="vtype-vehicle84" length="4.20976524986831" mass="1711.9975191747528" accel="2.1" decel="2.0868708619259593" emergencyDecel="5.31772244303806" minGap="11.34119027192062" vClass="passenger" emissionClass="HBEFA4/PC_diesel_Euro-5" color="#3498DB" guiShape="passenger/sedan"/>
    <vType id="vtype-vehicle85" length="4.376253472181347" mass="1524.2060443680207" accel="2.1" decel="0.4522241965333862" emergencyDecel="6.489201542376831" minGap="3.4825877115833848" vClass="passenger" emissionClass="HBEFA4/PC_diesel_Euro-6ab" color="#3498DB" guiShape="passenger/sedan"/>
    <vType id="vtype-vehicle86" length="4.717726879469155" mass="1635.406817647534" accel="2.1" decel="2.0058967295618912" emergencyDecel="5.6795122018078965" minGap="7.623210777943558" vClass="passenger" emissionClass="HBEFA4/PC_petrol_Euro-6ab" color="#3498DB" guiShape="passenger/sedan"/>
    <vType id="vtype-vehicle87" length="3.2350920516566966" mass="1808.970491254233" accel="3.053443067970756" decel="1.6830877833653157" emergencyDecel="5.788561601499106" minGap="7.633419866629065" vClass="passenger" emissionClass="HBEFA4/PC_petrol_PreEuro_3WCat_1987-90" color="#3498DB" guiShape="passenger/sedan"/>
    <vType id="vtype-vehicle88" length="4.232975572964243" mass="1539.40846596064" accel="2.7612489303738483" decel="1.7284420565631564" emergencyDecel="6.993686376162614" minGap="7.349782423360977" vClass="passenger" emissionClass="HBEFA4/PC_petrol_PreEuro_3WCat_1987-90" color="#3498DB" guiShape="passenger/sedan"/>
    <vType id="vtype-vehicle89" length="2.899438163342916" mass="1530.0369542184305" accel="3.5489857960096747" decel="4.704286224312803" emergencyDecel="8.010112771546762" minGap="8.245919913419835" vClass="passenger" emissionClass="HBEFA4/PC_diesel_Euro-6ab" color="#3498DB" guiShape="passenger/sedan"/>
    <vType id="vtype-vehicle90" length="3.6942278384859732" mass="1641.2752673907182" accel="7.61488958460076" decel="0.6545843569656982" emergencyDecel="6.623547845776095" minGap="5.2052182519210435" vClass="passenger" emissionClass="HBEFA4/PC_petrol_Euro-6ab" color="#3498DB" guiShape="passenger/sedan"/>
    <vType id="vtype-vehicle91" length="2.9041266459888675" mass="1576.2705063627388" accel="2.9010675377500683" decel="3.451561712951991" emergencyDecel="5.552254206131467" minGap="11.623629512464397" vClass="passenger" emissionClass="HBEFA4/PC_CNG_petrol_Euro-6_(CNG)" color="#3498DB" guiShape="passenger/sedan"/>
    <vType id="vtype-vehicle92" length="4.255811886192544" mass="1510.9448930710303" accel="2.1" decel="1.335186919274156" emergencyDecel="4.955471297277581" minGap="7.210907981410351" vClass="passenger" emissionClass="HBEFA4/PC_LPG_petrol_Euro-4_(LPG)" color="#3498DB" guiShape="passenger/sedan"/>
    <vType id="vtype-vehicle93" length="5.229375822824868" mass="1632.9155529992863" accel="2.1" decel="2.6836622617378367" emergencyDecel="4.560202270248286" minGap="5.193416909160307" vClass="passenger" emissionClass="HBEFA4/PC_diesel_Euro-4" color="#3498DB" guiShape="passenger/sedan"/>
    <vType id="vtype-vehicle94" length="4.912791416398509" mass="1603.8951863219595" accel="2.1" decel="1.5922406289579687" emergencyDecel="5.547523356866006" minGap="6.964473658977368" vClass="passenger" emissionClass="HBEFA4/PC_diesel_Euro-5" color="#3498DB" guiShape="passenger/sedan"/>
    <vType id="vtype-vehicle95" length="2.6487758941253685" mass="1563.7250349830595" accel="3.8511677375533684" decel="4.16472523089874" emergencyDecel="5.126707082328986" minGap="6.4808485130028375" vClass="passenger" emissionClass="HBEFA4/PC_diesel_Euro-6ab" color="#3498DB" guiShape="passenger/sedan"/>
    <vType id="vtype-vehicle96" length="5.078225664541426" mass="1764.498447763185" accel="4.84028358226578" decel="2.771763928479192" emergencyDecel="7.538212511978782" minGap="7.202237356099273" vClass="passenger" emissionClass="HBEFA4/PC_petrol_Euro-6ab" color="#3498DB" guiShape="passenger/sedan"/>
    <vType id="vtype-vehicle97" length="4.041296961894655" mass="1191.08601207925" accel="2.9627148157869834" decel="3.8635613571660463" emergencyDecel="6.081334937411693" minGap="6.1029703210721165" vClass="passenger" emissionClass="HBEFA4/PC_diesel_Euro-2" color="#3498DB" guiShape="passenger/sedan"/>