<?xml version="1.0" ?>
<routes>
    <vType id="vtype-vehicle0" length="3.8483306553775094" mass="1621.3110374224684" accel="3.4365515852210753" decel="5.049632865664396" emergencyDecel="9.818682988485186" minGap="2.47959634836299" vClass="passenger" emissionClass="HBEFA4/PC_petrol_Euro-6ab" color="#3498DB" guiShape="passenger/sedan"/>
    <vType id="vtype-vehicle1" length="5.867385658738275" mass="1648.067225204804" accel="4.322123064349383" decel="4.266991107390165" emergencyDecel="11.907124667946132" minGap="5.416039097471767" vClass="passenger" emissionClass="HBEFA4/PC_CNG_petrol_Euro-4_(CNG)" color="#3498DB" guiShape="passenger/sedan"/>
    <vType id="vtype-vehicle2" length="4.252036796963906" mass="1477.9689830309344" accel="4.454461099749114" decel="5.598269280283373" emergencyDecel="7.983300697930776" minGap="7.223210658820583" vClass="passenger" emissionClass="HBEFA4/PC_LPG_petrol_Euro-6_(LPG)" color="#3498DB" guiShape="passenger/sedan"/>
    <vType id="vtype-vehicle3" length="6.806063813591374" mass="2146.6088698955377" accel="2.1" decel="3.333954579419196" emergencyDecel="12.56965129877483" minGap="7.496590738400507" vClass="passenger" emissionClass="HBEFA4/PC_diesel_Euro-4" color="#3498DB" guiShape="passenger/sedan"/>
    <vType id="vtype-vehicle4" length="3.2594652860657947" mass="1525.822944545697" accel="2.1" decel="3.8990910155269085" emergencyDecel="9.116533326075963" minGap="6.157815478313313" vClass="passenger" emissionClass="HBEFA4/PC_diesel_Euro-5" color="#3498DB" guiShape="passenger/sedan"/>
    <vType id="vtype-vehicle5" length="3.85859846746071" mass="1984.8253108086108" accel="2.1" decel="4.31452590344784" emergencyDecel="11.065696409702257" minGap="6.1983876243448774" vClass="passenger" emissionClass="HBEFA4/PC_LPG_petrol_Euro-3_(LPG)" color="#3498DB" guiShape="passenger/sedan"/>
    <vType id="vtype-vehicle6" length="2.5" mass="1645.023394615718" accel="2.85651877593614" decel="3.486747981077979" emergencyDecel="9.239453609038225" minGap="8.632617163823308" vClass="passenger" emissionClass="HBEFA4/PC_LPG_petrol_Euro-6_(LPG)" color="#3498DB" guiShape="passenger/sedan"/>
    <vType id="vtype-vehicle7" length="5.788505087352657" mass="1612.1436959966575" accel="2.5392813210102387" decel="3.2145897468246982" emergencyDecel="9.551329310317326" minGap="8.766225852840083" vClass="passenger" emissionClass="HBEFA4/PC_petrol_Euro-4" color="#3498DB" guiShape="passenger/sedan"/>
    <vType id="vtype-vehicle8" length="2.7659614533523573" mass="1559.8987044303299" accel="2.695558541883704" decel="5.301133359663607" emergencyDecel="10.706855098856087" minGap="6.718809530454826" vClass="passenger" emissionClass="HBEFA4/PC_petrol_Euro-4" color="#3498DB" guiShape="passenger/sedan"/>
    <vType id="vtype-vehicle9" length="5.85061145481603" mass="1855.8443377933422" accel="2.1" decel="3.8976250434129027" emergencyDecel="10.278731196131947" minGap="6.941845315105908" vClass="passenger" emissionClass="HBEFA4/PC_petrol_Euro-6ab" color="#3498DB" guiShape="passenger/sedan"/>
    <vType id="vtype-vehicle10" length="3.5984104601253373" mass="1694.030190447355" accel="2.1" decel="4.071562967524782" emergencyDecel="9.7873761244269" minGap="8.095444824619353" vClass="passenger" emissionClass="HBEFA4/PC_diesel_Euro-4" color="#3498DB" guiShape="passenger/sedan"/>
    <vType id="vtype-vehicle11" length="4.32430471823126" mass="1147.0488281656178" accel="2.1" decel="4.284188945250215" emergencyDecel="9.237186743587952" minGap="10.06252520395985" vClass="passenger" emissionClass="HBEFA4/PC_petrol_Euro-6ab" color="#3498DB" guiShape="passenger/sedan"/>
    <vType id="vtype-vehicle12" length="3.245734782097391" mass="1209.2240876214578" accel="2.1" decel="3.6382145265109616" emergencyDecel="8.858385302252788" minGap="4.616671032621104" vClass="passenger" emissionClass="HBEFA4/PC_petrol_Euro-6ab" color="#3498DB" guiShape="passenger/sedan"/>
    <vType id="vtype-vehicle13" length="4.14181769342243" mass="1717.1819690672817" accel="2.936246176421027" decel="4.159034699907232" emergencyDecel="11.0363636426334" minGap="4.456841975901886" vClass="passenger" emissionClass="HBEFA4/PC_petrol_Euro-6ab" color="#3498DB" guiShape="passenger/sedan"/>
    <vType id="vtype-vehicle14" length="4.583825336785382" mass="1492.8904588340195" accel="2.1" decel="5.051727694907799" emergencyDecel="9.985670425656235" minGap="7.662002117882398" vClass="passenger" emissionClass="HBEFA4/PC_petrol_Euro-6ab" color="#3498DB" guiShape="passenger/sedan"/>
    <vType id="vtype-vehicle15" length="4.155481400158526" mass="1108.0963503003868" accel="2.1" decel="4.153543122964471" emergencyDecel="8.911345492108403" minGap="6.8838868119188" vClass="passenger" emissionClass="HBEFA4/PC_petrol_Euro-6ab" color="#3498DB" guiShape="passenger/sedan"/>
    <vType id="vtype-vehicle16" length="4.387094496659666" mass="1633.628602127171" accel="4.556958388384131" decel="3.434802568964619" emergencyDecel="9.632530284694596" minGap="9.42305413065812" vClass="passenger" emissionClass="HBEFA4/PC_petrol_Euro-6ab" color="#3498DB" guiShape="passenger/sedan"/>
    <vType id="vtype-vehicle17" length="6.771616851755821" mass="2013.0541734880205" accel="4.112369816894568" decel="5.164972573172639" emergencyDecel="9.515577051738179" minGap="9.843663616869529" vClass="passenger" emissionClass="HBEFA4/PC_diesel_Euro-4" color="#3498DB" guiShape="passenger/sedan"/>
    <vType id="vtype-vehicle18" length="4.494426148655027" mass="1529.480339019507" accel="2.1" decel="3.329306294235121" emergencyDecel="10.682708238930688" minGap="7.626650832335704" vClass="passenger" emissionClass="HBEFA4/PC_petrol_Euro-2" color="#3498DB" guiShape="passenger/sedan"/>
    <vType id="vtype-vehicle19" length="4.086864764714105" mass="1711.7030035147327" accel="2.1" decel="3.286774480950712" emergencyDecel="8.676340377358171" minGap="7.968416816797615" vClass="passenger" emissionClass="HBEFA4/PC_LPG_petrol_Euro-6_(LPG)" color="#3498DB" guiShape="passenger/sedan"/>
    <vType id="vtype-vehicle20" length="4.408157272517227" mass="1729.9314032814673" accel="6.1767952518084215" decel="3.8608328131098952" emergencyDecel="9.892958122047617" minGap="6.458203640173914" vClass="passenger" emissionClass="HBEFA4/PC_petrol_PreEuro_3WCat_1987-90" color="#3498DB" guiShape="passenger/sedan"/>
    <vType id="vtype-vehicle21" length="3.916635952735991" mass="1894.7970304773087" accel="2.8208129821940036" decel="5.234904312249025" emergencyDecel="10.118080107145595" minGap="11.61288801001631" vClass="passenger" emissionClass="HBEFA4/PC_diesel_Euro-6ab" color="#3498DB" guiShape="passenger/sedan"/>
    <vType id="vtype-vehicle22" length="3.025503044088797" mass="1415.0795265584968" accel="4.731907556512757" decel="3.3271789525769355" emergencyDecel="10.197487472830623" minGap="6.288182484267333" vClass="passenger" emissionClass="HBEFA4/PC_petrol_Euro-2" color="#3498DB" guiShape="passenger/sedan"/>
    <vType id="vtype-vehicle23" length="3.514863118517479" mass="1339.497487856654" accel="2.708838144958036" decel="5.866433618874841" emergencyDecel="10.857394286804563" minGap="6.287074366561787" vClass="passenger" emissionClass="HBEFA4/PC_diesel_Euro-6ab" color="#3498DB" guiShape="passenger/sedan"/>
    <vType id="vtype-vehicle24" length="6.379602004909731" mass="1464.2408206501377" accel="2.1" decel="3.565246974121532" emergencyDecel="8.773264664512984" minGap="5.600575325061547" vClass="passenger" emissionClass="HBEFA4/PC_diesel_Euro-5" color="#3498DB" guiShape="passenger/sedan"/>
    <vType id="vtype-vehicle25" length="3.9726089182688065" mass="2199.903234203616" accel="2.1" decel="4.337219826618452" emergencyDecel="9.159419416676549" minGap="7.55482235247773" vClass="passenger" emissionClass="HBEFA4/PC_petrol_Euro-1" color="#3498DB" guiShape="passenger/sedan"/>
    <vType id="vtype-vehicle26" length="4.544660662532798" mass="1162.6461366541948" accel="6.300966040937992" decel="6.361647674979226" emergencyDecel="9.81490878061456" minGap="8.61803249519761" vClass="passenger" emissionClass="HBEFA4/PC_diesel_Euro-5" color="#3498DB" guiShape="passenger/sedan"/>
    <vType id="vtype-vehicle27" length="5.430007855899125" mass="1729.0372201701935" accel="3.579183160909054" decel="4.168931627882571" emergencyDecel="8.447606767266706" minGap="7.084606446863104" vClass="passenger" emissionClass="HBEFA4/PC_diesel_Euro-6ab" color="#3498DB" guiShape="passenger/sedan"/>
    <vType id="vtype-vehicle28" length="4.8511130812187515" mass="1592.5074502659427" accel="6.915757457922081" decel="4.16154835415174" emergencyDecel="9.996712483242188" minGap="6.512485718425084" vClass="passenger" emissionClass="HBEFA4/PC_petrol_PreEuro_3WCat_1987-90" color="#3498DB" guiShape="passenger/sedan"/>
    <vType id="vtype-vehicle29" length="5.1454653915748025" mass="1635.741780149312" accel="3.6585130716376684" decel="3.7855328365709804" emergencyDecel="8.110250177387377" minGap="6.772367371205673" vClass="passenger" emissionClass="HBEFA4/PC_diesel_Euro-5" color="#3498DB" guiShape="passenger/sedan"/>
    <vType id="vtype-vehicle30" length="2.6857313969800085" mass="1175.7599153076403" accel="3.2935453220949036" decel="3.0182412752837697" emergencyDecel="10.183785148228738" minGap="8.694892783216154" vClass="passenger" emissionClass="HBEFA4/PC_petrol_Euro-2" color="#3498DB" guiShape="passenger/sedan"/>
    <vType id="vtype-vehicle31" length="2.5619882225010686" mass="1607.8118955994373" accel="3.5012531195489114" decel="4.868487217111676" emergencyDecel="9.592325190920796" minGap="7.67934937746886" vClass="passenger" emissionClass="HBEFA4/PC_petrol_Euro-6ab" color="#3498DB" guiShape="passenger/sedan"/>
    <vType id="vtype-vehicle32" length="4.38675399838359" mass="1703.699540508086" accel="3.0968125250114817" decel="4.77120221541529" emergencyDecel="9.719046448202286" minGap="7.130757281102381" vClass="passenger" emissionClass="HBEFA4/PC_petrol_Euro-6ab" color="#3498DB" guiShape="passenger/sedan"/>
    <vType id="vtype-vehicle33" length="5.0994061016116" mass="1611.8507827225542" accel="2.1" decel="3.0189500433753023" emergencyDecel="9.746480066061837" minGap="9.291552718231214" vClass="passenger" emissionClass="HBEFA4/PC_diesel_Euro-6ab" color="#3498DB" guiShape="passenger/sedan"/>
    <vType id="vtype-vehicle34" length="4.954130499589232" mass="1702.0326005425704" accel="2.1" decel="3.215999230954078" emergencyDecel="10.977962517229944" minGap="8.060336428703687" vClass="passenger" emissionClass="HBEFA4/PC_diesel_Euro-3" color="#3498DB" guiShape="passenger/sedan"/>
    <vType id="vtype-vehicle35" length="3.8244096018776226" mass="1335.6586684311621" accel="3.78167892220068" decel="3.9459832182293213" emergencyDecel="9.18552142854469" minGap="6.5327071951374265" vClass="passenger" emissionClass="HBEFA4/PC_diesel_Euro-3" color="#3498DB" guiShape="passenger/sedan"/>
    <vType id="vtype-vehicle36" length="2.543110747361709" mass="1472.4728085991287" accel="3.787333522326181" decel="3.393006253822598" emergencyDecel="8.462263275298378" minGap="6.712931429976279" vClass="passenger" emissionClass="HBEFA4/PC_diesel_Euro-6ab" color="#3498DB" guiShape="passenger/sedan"/>
    <vType id="vtype-vehicle37" length="4.5702970244180285" mass="1436.7801058723498" accel="2.1" decel="4.133047948335962" emergencyDecel="8.097030574542504" minGap="10.552493251305926" vClass="passenger" emissionClass="HBEFA4/PC_petrol_Euro-4" color="#3498DB" guiShape="passenger/sedan"/>
    <vType id="vtype-vehicle38" length="3.232609148483316" mass="1339.8924651784869" accel="2.1" decel="3.6153074826343103" emergencyDecel="11.421799457051389" minGap="6.629010184909515" vClass="passenger" emissionClass="HBEFA4/PC_diesel_Euro-4" color="#3498DB" guiShape="passenger/sedan"/>
    <vType id="vtype-vehicle39" length="4.829252683911383" mass="1720.5419556470279" accel="4.21687377424782" decel="6.360786467232162" emergencyDecel="10.184110121092731" minGap="6.009066889791806" vClass="passenger" emissionClass="HBEFA4/PC_petrol_Euro-4" color="#3498DB" guiShape="passenger/sedan"/>
    <vType id="vtype-vehicle40" length="5.131075645363363" mass="1784.0706211215602" accel="2.1" decel="2.4497699842699703" emergencyDecel="10.059914907962575" minGap="6.249545071763824" vClass="passenger" emissionClass="HBEFA4/PC_petrol_Euro-6ab" color="#3498DB" guiShape="passenger/sedan"/>
    <vType id="vtype-vehicle41" length="3.9359273750460466" mass="1353.738313222504" accel="3.9324204148112116" decel="3.8671206829456333" emergencyDecel="10.01102316949518" minGap="7.48370059581673" vClass="passenger" emissionClass="HBEFA4/PC_diesel_Euro-6ab" color="#3498DB" guiShape="passenger/sedan"/>
    <vType id="vtype-vehicle42" length="5.725024213324551" mass="1571.8645891641622" accel="4.085922345146747" decel="4.533964009887168" emergencyDecel="7.879302551712475" minGap="10.21397169473036" vClass="passenger" emissionClass="HBEFA4/PC_petrol_Euro-4" color="#3498DB" guiShape="passenger/sedan"/>
    <vType id="vtype-vehicle43" length="6.436269742567114" mass="1618.4758416227269" accel="4.722464826689822" decel="4.4017590899955685" emergencyDecel="12.275189011681977" minGap="0.34682839325093173" vClass="passenger" emissionClass="HBEFA4/PC_diesel_Euro-6ab" color="#3498DB" guiShape="passenger/sedan"/>
    <vType id="vtype-vehicle44" length="4.066642651624534" mass="1439.9982871581883" accel="4.750264575828358" decel="3.9722919028684847" emergencyDecel="8.432366941802721" minGap="5.06264855778738" vClass="passenger" emissionClass="HBEFA4/PC_petrol_Euro-3" color="#3498DB" guiShape="passenger/sedan"/>
    <vType id="vtype-vehicle45" length="3.790790104499164" mass="1509.5699852655089" accel="2.1" decel="5.46105956293673" emergencyDecel="11.434427309458819" minGap="4.95983772718179" vClass="passenger" emissionClass="HBEFA4/PC_petrol_PreEuro_3WCat_1987-90" color="#3498DB" guiShape="passenger/sedan"/>
    <vType id="vtype-vehicle46" length="4.247285293935777" mass="1677.6450001857581" accel="2.1" decel="3.2634470468376082" emergencyDecel="10.315631312441807" minGap="8.567004359428124" vClass="passenger" emissionClass="HBEFA4/PC_diesel_Euro-6ab" color="#3498DB" guiShape="passenger/sedan"/>
    <vType id="vtype-vehicle47" length="4.704101542245097" mass="1651.6876942483464" accel="4.005779723604281" decel="2.9972503744561694" emergencyDecel="10.33810690488906" minGap="9.58175815848034" vClass="passenger" emissionClass="HBEFA4/PC_petrol_PreEuro_3WCat_1987-90" color="#3498DB" guiShape="passenger/sedan"/>
    <vType id="vtype-vehicle48" length="4.157766379009307" mass="1469.2375310957846" accel="3.196762223478717" decel="4.6465137035610615" emergencyDecel="9.227688592677136" minGap="6.447609382584161" vClass="passenger" emissionClass="HBEFA4/PC_petrol_Euro-4" color="#3498DB" guiShape="passenger/sedan"/>
    <vType id="vtype-vehicle49" length="2.5" mass="1669.0672542124537" accel="2.1" decel="7.636135676950335" emergencyDecel="11.981891425150133" minGap="5.764787457682789" vClass="passenger" emissionClass="HBEFA4/PC_petrol_Euro-5" color="#3498DB" guiShape="passenger/sedan"/>
    <vType id="vtype-vehicle50" length="4.826125435128575" mass="1491.6120159916698" accel="3.655045775004357" decel="3.7134641277715383" emergencyDecel="11.262220589909953" minGap="9.135082057847184" vClass="passenger" emissionClass="HBEFA4/PC_petrol_Euro-5" color="#3498DB" guiShape="passenger/sedan"/>
    <vType id="vtype-vehicle51" length="4.823034855964794" mass="1573.9539352020333" accel="2.1453203654634545" decel="4.063615110117609" emergencyDecel="9.534896520811618" minGap="8.343034050373385" vClass="passenger" emissionClass="HBEFA4/PC_diesel_Euro-5" color="#3498DB" guiShape="passenger/sedan"/>
    <vType id="vtype-vehicle52" length="5.361900241790181" mass="1428.8917142900525" accel="5.321806374433709" decel="3.2399517420203856" emergencyDecel="10.28351762238601" minGap="7.575392348029425" vClass="passenger" emissionClass="HBEFA4/PC_petrol_PreEuro_3WCat_1987-90" color="#3498DB" guiShape="passenger/sedan"/>
    <vType id="vtype-vehicle53" length="4.912231907977476" mass="1870.773162215084" accel="5.856916229819207" decel="3.8086658354859666" emergencyDecel="9.737421724169524" minGap="10.921182529561872" vClass="passenger" emissionClass="HBEFA4/PC_LPG_petrol_Euro-6_(LPG)" color="#3498DB" guiShape="passenger/sedan"/>
    <vType id="vtype-vehicle54" length="3.5677248461931805" mass="2002.3600262179234" accel="2.1" decel="3.175845015366683" emergencyDecel="10.506608629472503" minGap="5.463584752863271" vClass="passenger" emissionClass="HBEFA4/PC_petrol_Euro-6ab" color="#3498DB" guiShape="passenger/sedan"/>
    <vType id="vtype-vehicle55" length="4.437175657575165" mass="2102.5715490535285" accel="2.1" decel="4.775639702113101" emergencyDecel="9.001658838003488" minGap="8.423845203332009" vClass="passenger" emissionClass="HBEFA4/PC_diesel_Euro-5" color="#3498DB" guiShape="passenger/sedan"/>
    <vType id="vtype-vehicle56" length="4.538436731992578" mass="1427.403762936195" accel="2.1736845341998094" decel="3.85988884602674" emergencyDecel="9.467165071800956" minGap="3.7580450313776597" vClass="passenger" emissionClass="HBEFA4/PC_petrol_Euro-2" color="#3498DB" guiShape="passenger/sedan"/>
    <vType id="vtype-vehicle57" length="5.5077815779591734" mass="1474.9013057838927" accel="2.174299875072849" decel="5.33482569003983" emergencyDecel="10.458980945304006" minGap="13.20441944510408" vClass="passenger" emissionClass="HBEFA4/PC_petrol_PreEuro_3WCat_1987-90" color="#3498DB" guiShape="passenger/sedan"/>
    <vType id="vtype-vehicle58" length="4.178148965075335" mass="1569.123533628281" accel="8.094383831263814" decel="2.9968156139234043" emergencyDecel="10.421445472817911" minGap="7.478791889371672" vClass="passenger" emissionClass="HBEFA4/PC_diesel_Euro-6ab" color="#3498DB" guiShape="passenger/sedan"/>
    <vType id="vtype-vehicle59" length="3.9397401270777226" mass="1603.5879614629596" accel="3.295464991308421" decel="2.9962357262062733" emergencyDecel="8.800032451077415" minGap="8.101983651006977" vClass="passenger" emissionClass="HBEFA4/PC_petrol_PreEuro_3WCat_1987-90" color="#3498DB" guiShape="passenger/sedan"/>
    <vType id="vtype-vehicle60" length="5.658448771470086" mass="1488.9041431594105" accel="2.3619323204449714" decel="2.326171366497225" emergencyDecel="9.621735254972585" minGap="10.621239032285356" vClass="passenger" emissionClass="HBEFA4/PC_petrol_PreEuro_3WCat_1987-90" color="#3498DB" guiShape="passenger/sedan"/>
    <vType id="vtype-vehicle61" length="4.51906142673555" mass="1759.43887541784" accel="3.7396796046126717" decel="2.1733738702713503" emergencyDecel="10.291175384971712" minGap="5.66762024364499" vClass="passenger" emissionClass="HBEFA4/PC_petrol_Euro-6ab" color="#3498DB" guiShape="passenger/sedan"/>
    <vType id="vtype-vehicle62" length="5.480218501361787" mass="1274.5642875139265" accel="2.1" decel="3.9354492491347743" emergencyDecel="11.388331120993683" minGap="2.7553771192830743" vClass="passenger" emissionClass="HBEFA4/PC_LPG_petrol_Euro-6_(LPG)" color="#3498DB" guiShape="passenger/sedan"/>
    <vType id="vtype-vehicle63" length="4.176345600607577" mass="1434.4820530022657" accel="4.643163464873892" decel="3.2649733128387286" emergencyDecel="9.758038325698827" minGap="6.62802514375097" vClass="passenger" emissionClass="HBEFA4/PC_petrol_Euro-2" color="#3498DB" guiShape="passenger/sedan"/>
    <vType id="vtype-vehicle64" length="5.173435199086059" mass="1189.1103284926353" accel="6.682754523520542" decel="2.555077338851567" emergencyDecel="10.839789257358076" minGap="6.663967389101196" vClass="passenger" emissionClass="HBEFA4/PC_diesel_Euro-5" color="#3498DB" guiShape="passenger/sedan"/>
    <vType id="vtype-vehicle65" length="4.754885604108732" mass="1605.8476693192388" accel="2.1" decel="3.5447029503708674" emergencyDecel="11.03616506223943" minGap="7.186118451469083" vClass="passenger" emissionClass="HBEFA4/PC_diesel_Euro-6ab" color="#3498DB" guiShape="passenger/sedan"/>
    <vType id="vtype-vehicle66" length="6.602329684015794" mass="1297.5437087975984" accel="5.960912946762964" decel="2.9403580728243557" emergencyDecel="9.728012601592754" minGap="7.20566169748151" vClass="passenger" emissionClass="HBEFA4/PC_petrol_Euro-2" color="#3498DB" guiShape="passenger/sedan"/>
    <vType id="vtype-vehicle67" length="3.2242053865440354" mass="1751.3143002947982" accel="2.1" decel="4.384333228604529" emergencyDecel="8.216307558187353" minGap="7.707881905274902" vClass="passenger" emissionClass="HBEFA4/PC_diesel_Euro-5" color="#3498DB" guiShape="passenger/sedan"/>
    <vType id="vtype-vehicle68" length="4.334348247439505" mass="1556.7758231454106" accel="3.8220207971789057" decel="2.73737460050811" emergencyDecel="8.93691478045861" minGap="4.637972734601474" vClass="passenger" emissionClass="HBEFA4/PC_LPG_petrol_Euro-4_(LPG)" color="#3498DB" guiShape="passenger/sedan"/>
    <vType id="vtype-vehicle69" length="5.62471875134547" mass="1951.9458740046932" accel="2.1" decel="3.7435017762399787" emergencyDecel="9.775300375249737" minGap="7.556881531030459" vClass="passenger" emissionClass="HBEFA4/PC_petrol_PreEuro_3WCat_1987-90" color="#3498DB" guiShape="passenger/sedan"/>
    <vType id="vtype-vehicle70" length="6.288592947798335" mass="1661.9545132116" accel="5.269361135248461" decel="6.001736268103224" emergencyDecel="7.919974776369271" minGap="4.050298395229973" vClass="passenger" emissionClass="HBEFA4/PC_diesel_Euro-4" color="#3498DB" guiShape="passenger/sedan"/>
    <vType id="vtype-vehicle71" length="4.693151723417153" mass="1721.4156296314404" accel="3.1556071047145426" decel="3.4178204890466315" emergencyDecel="9.077716631327727" minGap="5.47308750404843" vClass="passenger" emissionClass="HBEFA4/PC_diesel_Euro-6ab" color="#3498DB" guiShape="passenger/sedan"/>
    <vType id="vtype-vehicle72" length="4.517767850951971" mass="2000.202519527034" accel="2.1" decel="4.342398208188518" emergencyDecel="10.377117531031882" minGap="6.827866284403096" vClass="passenger" emissionClass="HBEFA4/PC_petrol_Euro-4" color="#3498DB" guiShape="passenger/sedan"/>
    <vType id="vtype-vehicle73" length="4.410027794865798" mass="1751.8058778926925" accel="3.28624826822215" decel="3.7760055128274885" emergencyDecel="8.636345003708307" minGap="7.860972271859483" vClass="passenger" emissionClass="HBEFA4/PC_diesel_Euro-5" color="#3498DB" guiShape="passenger/sedan"/>
    <vType id="vtype-vehicle74" length="3.1617672674039827" mass="1351.0012514503592" accel="3.1278818484251407" decel="5.045976268975036" emergencyDecel="10.15094709937657" minGap="10.130822061923531" vClass="passenger" emissionClass="HBEFA4/PC_petrol_PreEuro_3WCat_1987-90" color="#3498DB" guiShape="passenger/sedan"/>
    <vType id="vtype-vehicle75" length="6.341035331782957" mass="1481.995352996853" accel="2.1" decel="4.695356497487834" emergencyDecel="10.384116138307744" minGap="5.764095534478913" vClass="passenger" emissionClass="HBEFA4/PC_diesel_Euro-3" color="#3498DB" guiShape="passenger/sedan"/>
    <vType id="vtype-vehicle76" length="4.541361125557782" mass="1245.0596387532592" accel="3.627329959916888" decel="4.131166511819295" emergencyDecel="10.587288291807404" minGap="3.860653311739777" vClass="passenger" emissionClass="HBEFA4/PC_diesel_Euro-4" color="#3498DB" guiShape="passenger/sedan"/>
    <vType id="vtype-vehicle77" length="5.742003663938523" mass="1839.2471776811885" accel="2.1" decel="2" emergencyDecel="10.052229845010139" minGap="6.188191143059164" vClass="passenger" emissionClass="HBEFA4/PC_diesel_Euro-3" color="#3498DB" guiShape="passenger/sedan"/>
    <vType id="vtype-vehicle78" length="4.1327984840911105" mass="1873.1656502985709" accel="3.1422706837048655" decel="2" emergencyDecel="11.014064293738976" minGap="8.417059335574697" vClass="passenger" emissionClass="HBEFA4/PC_petrol_Euro-5" color="#3498DB" guiShape="passenger/sedan"/>
    <vType id="vtype-vehicle79" length="3.4480671871798454" mass="1764.3199889892294" accel="5.29326972311126" decel="3.721488756308795" emergencyDecel="8.42621082603182" minGap="8.280729267626855" vClass="passenger" emissionClass="HBEFA4/PC_petrol_Euro-3" color="#3498DB" guiShape="passenger/sedan"/>
    <vType id="vtype-vehicle80" length="5.450816557199058" mass="1749.068024810538" accel="2.1" decel="2.6302785181924673" emergencyDecel="10.390967550304204" minGap="7.649134547983055" vClass="passenger" emissionClass="HBEFA4/PC_diesel_Euro-5" color="#3498DB" guiShape="passenger/sedan"/>
    <vType id="vtype-vehicle81" length="4.037654411787903" mass="1851.4902455479516" accel="3.563100635574102" decel="3.2121605418552646" emergencyDecel="8.42677402627403" minGap="7.479128257609597" vClass="passenger" emissionClass="HBEFA4/PC_petrol_Euro-5" color="#3498DB" guiShape="passenger/sedan"/>
    <vType id="vtype-vehicle82" length="4.026743470164984" mass="1719.596129158223" accel="3.4842290310521165" decel="4.844597407373922" emergencyDecel="11.022553672612423" minGap="4.148743802415872" vClass="passenger" emissionClass="HBEFA4/PC_diesel_Euro-4" color="#3498DB" guiShape="passenger/sedan"/>
    <vType id="vtype-vehicle83" length="6.350641875334526" mass="1835.651078021535" accel="2.1" decel="4.6213842425328275" emergencyDecel="10.475103635936582" minGap="7.351937528844376" vClass="passenger" emissionClass="HBEFA4/PC_diesel_Euro-6ab" color="#3498DB" guiShape="passenger/sedan"/>
    <vType id="vtype-vehicle84" length="5.598982524385794" mass="2088.350166213882" accel="6.777095468463258" decel="5.49623447149363" emergencyDecel="8.54146448486316" minGap="5.581990687003604" vClass="passenger" emissionClass="HBEFA4/PC_petrol_Euro-3" color="#3498DB" guiShape="passenger/sedan"/>
    <vType id="vtype-vehicle85" length="5.637816652400289" mass="1814.4306180752942" accel="2.1" decel="5.027122578728408" emergencyDecel="11.072854810050476" minGap="7.303665652821037" vClass="passenger" emissionClass="HBEFA4/PC_LPG_petrol_Euro-6_(LPG)" color="#3498DB" guiShape="passenger/sedan"/>
    <vType id="vtype-vehicle86" length="4.5330825815474345" mass="1582.5674849362733" accel="2.1" decel="4.765249536203818" emergencyDecel="9.296028412813397" minGap="6.029226403665458" vClass="passenger" emissionClass="HBEFA4/PC_CNG_petrol_Euro-4_(CNG)" color="#3498DB" guiShape="passenger/sedan"/>
    <vType id="vtype-vehicle87" length="4.1367801222998155" mass="1609.109730244282" accel="4.48934307442174" decel="3.4862093121346898" emergencyDecel="12.043518088086646" minGap="6.008340598844001" vClass="passenger" emissionClass="HBEFA4/PC_petrol_Euro-2" color="#3498DB" guiShape="passenger/sedan"/>
    <vType id="vtype-vehicle88" length="5.8716004101129045" mass="1652.1800466682723" accel="3.08654129723701" decel="3.483176329494517" emergencyDecel="8.866755145480152" minGap="9.147145960000284" vClass="passenger" emissionClass="HBEFA4/PC_petrol_Euro-6ab" color="#3498DB" guiShape="passenger/sedan"/>
    <vType id="vtype-vehicle89" length="4.578135971263301" mass="1679.6978310723134" accel="3.882152847899099" decel="4.53435636365529" emergencyDecel="10.195401291960343" minGap="8.06562061874404" vClass="passenger" emissionClass="HBEFA4/PC_diesel_Euro-6ab" color="#3498DB" guiShape="passenger/sedan"/>
    <vType id="vtype-vehicle90" length="4.710177362172776" mass="1672.036935180138" accel="3.823570010572569" decel="3.8371161681215016" emergencyDecel="12.091710694809436" minGap="6.938673412040218" vClass="passenger" emissionClass="HBEFA4/PC_diesel_Euro-5" color="#3498DB" guiShape="passenger/sedan"/>
    <vType id="vtype-vehicle91" length="2.5" mass="1433.8022804919433" accel="2.1" decel="2.423296401043168" emergencyDecel="10.381350922017017" minGap="7.286476480545245" vClass="passenger" emissionClass="HBEFA4/PC_petrol_Euro-3" color="#3498DB" guiShape="passenger/sedan"/>
    <vType id="vtype-vehicle92" length="3.888338342471836" mass="1297.9131352132417" accel="2.602612023640868" decel="6.047777122934908" emergencyDecel="10.71320540963787" minGap="4.945468552091964" vClass="passenger" emissionClass="HBEFA4/PC_petrol_PreEuro_3WCat_1987-90" color="#3498DB" guiShape="passenger/sedan"/>
    <vType id="vtype-vehicle93" length="4.784787537394728" mass="1435.0957749822633" accel="3.7222889261670913" decel="5.245092907503866" emergencyDecel="7.209479593149306" minGap="8.58704264755957" vClass="passenger" emissionClass="HBEFA4/PC_petrol_Euro-4" color="#3498DB" guiShape="passenger/sedan"/>
    <vType id="vtype-vehicle94" length="5.613942521865685" mass="1323.5529083352685" accel="3.24360688289424" decel="3.435272206593564" emergencyDecel="11.18878459254038" minGap="8.825372998254027" vClass="passenger" emissionClass="HBEFA4/PC_diesel_Euro-6ab" color="#3498DB" guiShape="passenger/sedan"/>
    <vType id="vtype-vehicle95" length="3.3442709772857153" mass="1293.857011285411" accel="4.836567694844516" decel="4.566528579199429" emergencyDecel="10.731105245254065" minGap="8.955919976280255" vClass="passenger" emissionClass="HBEFA4/PC_diesel_Euro-4" color="#3498DB" guiShape="passenger/sedan"/>
    <vType id="vtype-vehicle96" length="4.699735661132849" mass="1625.6992443832048" accel="6.4679586042856485" decel="4.258490281882747" emergencyDecel="11.56617315416011" minGap="6.008496645389177" vClass="passenger" emissionClass="HBEFA4/PC_CNG_petrol_Euro-4_(CNG)" color="#3498DB" guiShape="passenger/sedan"/>
    <vType id="vtype-vehicle97" length="5.3292732403780665" mass="1425.7375542264786" accel="2.6931544578146416" decel="3.8856212844221325" emergencyDecel="9.585516175126847" minGap="7.4017504149315645" vClass="passenger" emissionClass="HBEFA4/PC_petrol_Euro-6ab" color="#3498DB" guiShape="passenger/sedan"/>
    <vType id="vtype-vehicle98" length="5.105488917156595" mass="1301.399652504605" accel="4.130270376852076" decel="2.150771178323086" emergencyDecel="10.03786697883928" minGap="5.619776287295538" vClass="passenger" emissionClass="HBEFA4/PC_petrol_Euro-2" color="#3498DB" guiShape="passenger/sedan"/>