<?xml version="1.0" ?>
<routes>
    <vType id="vtype-vehicle0" length="6.106580869599542" mass="1382.9463809133204" accel="5.146390991544237" decel="4.7969687805770045" emergencyDecel="10.508996634025907" minGap="6.283291663853193" vClass="passenger" emissionClass="HBEFA4/PC_petrol_Euro-1" color="#3498DB" guiShape="passenger/sedan"/>
    <vType id="vtype-vehicle1" length="3.502304668241111" mass="1658.3634458382508" accel="3.337650853545535" decel="3.973177233846803" emergencyDecel="11.980426529823514" minGap="7.59304882343302" vClass="passenger" emissionClass="HBEFA4/PC_diesel_Euro-5" color="#3498DB" guiShape="passenger/sedan"/>
    <vType id="vtype-vehicle2" length="3.143815659200711" mass="1653.9715152739252" accel="2.1" decel="5.6164409012297565" emergencyDecel="9.392234580053104" minGap="8.607748366849481" vClass="passenger" emissionClass="HBEFA4/PC_diesel_Euro-6ab" color="#3498DB" guiShape="passenger/sedan"/>
    <vType id="vtype-vehicle3" length="2.5" mass="2011.4676549315775" accel="2.1" decel="3.711786832313658" emergencyDecel="10.945141533435393" minGap="10.92348035264512" vClass="passenger" emissionClass="HBEFA4/PC_petrol_Euro-4" color="#3498DB" guiShape="passenger/sedan"/>
    <vType id="vtype-vehicle4" length="5.1111797115749855" mass="1307.9790197651714" accel="2.1" decel="5.5920945611024315" emergencyDecel="10.543202695202222" minGap="8.47396365060574" vClass="passenger" emissionClass="HBEFA4/PC_petrol_Euro-6ab" color="#3498DB" guiShape="passenger/sedan"/>
    <vType id="vtype-vehicle5" length="3.0212790608269096" mass="1612.5105265677664" accel="4.0162312093049755" decel="4.1936593848350165" emergencyDecel="9.424953348436901" minGap="7.708256562902826" vClass="passenger" emissionClass="HBEFA4/PC_petrol_Euro-2" color="#3498DB" guiShape="passenger/sedan"/>
    <vType id="vtype-vehicle6" length="2.5" mass="1714.320492368554" accel="2.1" decel="4.203924687218066" emergencyDecel="9.172300916562184" minGap="6.797194734638948" vClass="passenger" emissionClass="HBEFA4/PC_petrol_Euro-4" color="#3498DB" guiShape="passenger/sedan"/>
    <vType id="vtype-vehicle7" length="4.6843866849887" mass="1254.6151627173515" accel="5.518824576098398" decel="4.463699584921483" emergencyDecel="9.630843757659074" minGap="6.628526604474485" vClass="passenger" emissionClass="HBEFA4/PC_diesel_Euro-3" color="#3498DB" guiShape="passenger/sedan"/>
    <vType id="vtype-vehicle8" length="5.489306919117941" mass="1741.8958464477867" accel="2.1906365504182475" decel="4.679575082349098" emergencyDecel="10.602345561417783" minGap="7.725856810903921" vClass="passenger" emissionClass="HBEFA4/PC_diesel_Euro-6ab" color="#3498DB" guiShape="passenger/sedan"/>
    <vType id="vtype-vehicle9" length="4.277425423780115" mass="1782.856743656601" accel="2.1" decel="4.83153398028377" emergencyDecel="9.917428615854691" minGap="8.45571835840775" vClass="passenger" emissionClass="HBEFA4/PC_LPG_petrol_Euro-5_(LPG)" color="#3498DB" guiShape="passenger/sedan"/>
    <vType id="vtype-vehicle10" length="4.206119489892242" mass="1571.0808905836316" accel="3.717599150638919" decel="4.236658546111225" emergencyDecel="10.046790753618467" minGap="7.329214891405103" vClass="passenger" emissionClass="HBEFA4/PC_petrol_Euro-6ab" color="#3498DB" guiShape="passenger/sedan"/>
    <vType id="vtype-vehicle11" length="5.1994883764241004" mass="1819.5699574403366" accel="2.130559392340092" decel="4.099734724226428" emergencyDecel="10.928047049875644" minGap="7.02706278420538" vClass="passenger" emissionClass="HBEFA4/PC_petrol_Euro-3" color="#3498DB" guiShape="passenger/sedan"/>
    <vType id="vtype-vehicle12" length="2.8333501642051306" mass="1424.570589425513" accel="2.9380843283165294" decel="3.114595057676335" emergencyDecel="9.778008686943048" minGap="7.915532511496534" vClass="passenger" emissionClass="HBEFA4/PC_petrol_PreEuro_3WCat_1987-90" color="#3498DB" guiShape="passenger/sedan"/>
    <vType id="vtype-vehicle13" length="4.633738543079066" mass="1610.3369929743872" accel="2.1" decel="4.742636434298585" emergencyDecel="11.285914414989055" minGap="6.748338088005384" vClass="passenger" emissionClass="HBEFA4/PC_CNG_petrol_Euro-5_(CNG)" color="#3498DB" guiShape="passenger/sedan"/>
    <vType id="vtype-vehicle14" length="3.345607735566692" mass="1309.8447238178198" accel="2.297531547463653" decel="6.01582306790558" emergencyDecel="9.77344390846197" minGap="10.982258594294507" vClass="passenger" emissionClass="HBEFA4/PC_diesel_Euro-5" color="#3498DB" guiShape="passenger/sedan"/>
    <vType id="vtype-vehicle15" length="6.621870998299845" mass="1407.8843285174353" accel="2.465324788965635" decel="4.444994310521079" emergencyDecel="10.428185041435945" minGap="6.501909700587465" vClass="passenger" emissionClass="HBEFA4/PC_diesel_Euro-3" color="#3498DB" guiShape="passenger/sedan"/>
    <vType id="vtype-vehicle16" length="5.4380785465184704" mass="1719.702926532848" accel="3.6612732055765767" decel="3.329270292295604" emergencyDecel="9.18102872297588" minGap="11.19041594569135" vClass="passenger" emissionClass="HBEFA4/PC_diesel_Euro-6ab" color="#3498DB" guiShape="passenger/sedan"/>
    <vType id="vtype-vehicle17" length="5.248952273050591" mass="1883.349918463199" accel="5.514379856111757" decel="3.953548591356141" emergencyDecel="9.489660647838003" minGap="7.009547817879248" vClass="passenger" emissionClass="HBEFA4/PC_petrol_Euro-5" color="#3498DB" guiShape="passenger/sedan"/>
    <vType id="vtype-vehicle18" length="3.2662019952039207" mass="1168.945053291112" accel="4.974534655101745" decel="3.931971456103242" emergencyDecel="9.047682721163158" minGap="5.381440762948571" vClass="passenger" emissionClass="HBEFA4/PC_diesel_Euro-5" color="#3498DB" guiShape="passenger/sedan"/>
    <vType id="vtype-vehicle19" length="6.6672290744371825" mass="1454.1397560507398" accel="4.08205943554778" decel="2.381004046950639" emergencyDecel="11.363682730969174" minGap="6.6518357474422025" vClass="passenger" emissionClass="HBEFA4/PC_diesel_Euro-3" color="#3498DB" guiShape="passenger/sedan"/>
    <vType id="vtype-vehicle20" length="5.599877367399397" mass="1968.6510706940285" accel="3.0904238656969447" decel="3.251675356399784" emergencyDecel="10.828952042027158" minGap="8.215542354692099" vClass="passenger" emissionClass="HBEFA4/PC_petrol_Euro-4" color="#3498DB" guiShape="passenger/sedan"/>
    <vType id="vtype-vehicle21" length="5.213901281485332" mass="1463.9367961842222" accel="6.697311377749448" decel="2.82582294024897" emergencyDecel="11.209721839491992" minGap="7.917730774931652" vClass="passenger" emissionClass="HBEFA4/PC_petrol_Euro-4" color="#3498DB" guiShape="passenger/sedan"/>
    <vType id="vtype-vehicle22" length="2.6357580195241725" mass="1695.9100247573792" accel="2.1" decel="3.710989178211025" emergencyDecel="9.559765087561166" minGap="7.751197588337927" vClass="passenger" emissionClass="HBEFA4/PC_petrol_Euro-5" color="#3498DB" guiShape="passenger/sedan"/>
    <vType id="vtype-vehicle23" length="6.353714970444184" mass="1374.6506223877354" accel="3.5006589880606915" decel="2" emergencyDecel="10.61063000123978" minGap="6.62699276132582" vClass="passenger" emissionClass="HBEFA4/PC_diesel_Euro-6ab" color="#3498DB" guiShape="passenger/sedan"/>
    <vType id="vtype-vehicle24" length="3.9533596838849228" mass="2004.473085892281" accel="2.5342467808723055" decel="2.37735325490103" emergencyDecel="9.569641028975347" minGap="6.116753919831835" vClass="passenger" emissionClass="HBEFA4/PC_diesel_Euro-4" color="#3498DB" guiShape="passenger/sedan"/>
    <vType id="vtype-vehicle25" length="5.347129388985316" mass="1400.8612054373496" accel="4.919735310237931" decel="5.484852025740582" emergencyDecel="8.498056894567991" minGap="5.685035428730601" vClass="passenger" emissionClass="HBEFA4/PC_petrol_Euro-5" color="#3498DB" guiShape="passenger/sedan"/>
    <vType id="vtype-vehicle26" length="4.15244347871491" mass="1615.7357111105712" accel="3.3704250723600597" decel="4.801337141685353" emergencyDecel="8.897375673181285" minGap="7.3249159505941" vClass="passenger" emissionClass="HBEFA4/PC_diesel_Euro-4" color="#3498DB" guiShape="passenger/sedan"/>
    <vType id="vtype-vehicle27" length="4.152631791437124" mass="1747.2568501960338" accel="3.820963340573183" decel="4.670044461003555" emergencyDecel="9.886085732077168" minGap="5.333322549095211" vClass="passenger" emissionClass="HBEFA4/PC_CNG_petrol_Euro-4_(CNG)" color="#3498DB" guiShape="passenger/sedan"/>
    <vType id="vtype-vehicle28" length="3.0484788095319395" mass="1648.3427555086878" accel="3.3752069001176577" decel="3.5353662578905607" emergencyDecel="9.85973690189917" minGap="8.304818824473038" vClass="passenger" emissionClass="HBEFA4/PC_petrol_Euro-4" color="#3498DB" guiShape="passenger/sedan"/>
    <vType id="vtype-vehicle29" length="3.66751459857238" mass="1562.4316761261562" accel="2.1" decel="4.932523473701325" emergencyDecel="9.804695622377128" minGap="4.3347421954553855" vClass="passenger" emissionClass="HBEFA4/PC_petrol_Euro-4" color="#3498DB" guiShape="passenger/sedan"/>
    <vType id="vtype-vehicle30" length="4.190039281607456" mass="1738.119222462846" accel="2.1" decel="5.2076973350303835" emergencyDecel="9.676919650502027" minGap="8.512140219701589" vClass="passenger" emissionClass="HBEFA4/PC_diesel_Euro-6ab" color="#3498DB" guiShape="passenger/sedan"/>
    <vType id="vtype-vehicle31" length="6.3405710681406" mass="1616.4141718670944" accel="2.508184675031293" decel="4.839796320322254" emergencyDecel="9.32301983916139" minGap="2.172725615672891" vClass="passenger" emissionClass="HBEFA4/PC_diesel_Euro-6ab" color="#3498DB" guiShape="passenger/sedan"/>
    <vType id="vtype-vehicle32" length="4.104361772612189" mass="1780.5769067853753" accel="2.1" decel="2.1963981638230567" emergencyDecel="9.59600214846287" minGap="5.921965674982944" vClass="passenger" emissionClass="HBEFA4/PC_diesel_Euro-4" color="#3498DB" guiShape="passenger/sedan"/>
    <vType id="vtype-vehicle33" length="2.969589492904789" mass="1210.092160468072" accel="3.028652792849234" decel="4.406355637671112" emergencyDecel="10.906038544186025" minGap="8.137406993086088" vClass="passenger" emissionClass="HBEFA4/PC_petrol_Euro-1" color="#3498DB" guiShape="passenger/sedan"/>
    <vType id="vtype-vehicle34" length="3.490396931897788" mass="1536.6249379073397" accel="4.530259266846173" decel="4.4343771269808325" emergencyDecel="10.18163347538688" minGap="3.871639485565376" vClass="passenger" emissionClass="HBEFA4/PC_diesel_Euro-6ab" color="#3498DB" guiShape="passenger/sedan"/>
    <vType id="vtype-vehicle35" length="5.089468837068941" mass="1526.497602039589" accel="4.473721102969659" decel="4.349277739473632" emergencyDecel="8.947253540417085" minGap="7.28779874985399" vClass="passenger" emissionClass="HBEFA4/PC_petrol_Euro-4" color="#3498DB" guiShape="passenger/sedan"/>
    <vType id="vtype-vehicle36" length="3.5751333241134926" mass="1342.033115875509" accel="3.9746213576184877" decel="4.217910105244579" emergencyDecel="9.015124603521016" minGap="3.1467022124297244" vClass="passenger" emissionClass="HBEFA4/PC_petrol_PreEuro_3WCat_1987-90" color="#3498DB" guiShape="passenger/sedan"/>
    <vType id="vtype-vehicle37" length="2.5454236982977885" mass="1612.9143719205897" accel="2.9645042053385002" decel="3.6760628137328406" emergencyDecel="7.998738592266379" minGap="6.406061248503717" vClass="passenger" emissionClass="HBEFA4/PC_diesel_Euro-5" color="#3498DB" guiShape="passenger/sedan"/>
    <vType id="vtype-vehicle38" length="4.436543627235355" mass="1478.1020122471664" accel="2.742800470709192" decel="3.144055205022962" emergencyDecel="9.567052350550217" minGap="6.258557130661949" vClass="passenger" emissionClass="HBEFA4/PC_petrol_Euro-1" color="#3498DB" guiShape="passenger/sedan"/>
    <vType id="vtype-vehicle39" length="5.9682529475066515" mass="1477.2582048619845" accel="3.4827984727716204" decel="2.848506426892504" emergencyDecel="7.804317130878843" minGap="6.62746736436471" vClass="passenger" emissionClass="HBEFA4/PC_diesel_Euro-5" color="#3498DB" guiShape="passenger/sedan"/>
    <vType id="vtype-vehicle40" length="4.617715062516886" mass="1202.5475847918283" accel="4.961290255631269" decel="4.350268464244959" emergencyDecel="10.18671264991923" minGap="5.1396424775654355" vClass="passenger" emissionClass="HBEFA4/PC_PHEV_petrol_Euro-6d_(El)" color="#3498DB" guiShape="passenger/sedan"/>
    <vType id="vtype-vehicle41" length="2.5" mass="2064.230139005516" accel="2.1" decel="3.2335139904493113" emergencyDecel="9.146533826944315" minGap="4.887487430815361" vClass="passenger" emissionClass="HBEFA4/PC_diesel_Euro-5" color="#3498DB" guiShape="passenger/sedan"/>
    <vType id="vtype-vehicle42" length="4.190782046797024" mass="1632.8260886683258" accel="2.1" decel="2.945428388243016" emergencyDecel="8.907992493957885" minGap="6.622407614699844" vClass="passenger" emissionClass="HBEFA4/PC_petrol_Euro-5" color="#3498DB" guiShape="passenger/sedan"/>
    <vType id="vtype-vehicle43" length="5.240271198049485" mass="1883.4346972777469" accel="2.9931600220790933" decel="3.731481886343871" emergencyDecel="9.765590676190516" minGap="2.639604014485146" vClass="passenger" emissionClass="HBEFA4/PC_diesel_Euro-6ab" color="#3498DB" guiShape="passenger/sedan"/>
    <vType id="vtype-vehicle44" length="6.992526309241425" mass="1807.5275298337256" accel="2.1" decel="4.806202446193671" emergencyDecel="10.663159573357797" minGap="8.992996982684888" vClass="passenger" emissionClass="HBEFA4/PC_petrol_Euro-6ab" color="#3498DB" guiShape="passenger/sedan"/>
    <vType id="vtype-vehicle45" length="4.46509847422912" mass="1973.124678653547" accel="5.365035909892226" decel="4.411257727592886" emergencyDecel="9.059465315269712" minGap="5.9791212331175565" vClass="passenger" emissionClass="HBEFA4/PC_diesel_Euro-6ab" color="#3498DB" guiShape="passenger/sedan"/>
    <vType id="vtype-vehicle46" length="3.1838077914294574" mass="1309.799383025363" accel="3.6111021721451477" decel="4.054474281341599" emergencyDecel="10.40256775476798" minGap="6.419219196204188" vClass="passenger" emissionClass="HBEFA4/PC_diesel_Euro-4" color="#3498DB" guiShape="passenger/sedan"/>
    <vType id="vtype-vehicle47" length="3.7950264995757608" mass="1559.2760418470666" accel="2.1" decel="3.4509232479200973" emergencyDecel="8.49469818762808" minGap="8.994365663769047" vClass="passenger" emissionClass="HBEFA4/PC_petrol_Euro-3" color="#3498DB" guiShape="passenger/sedan"/>
    <vType id="vtype-vehicle48" length="3.759637718653093" mass="1663.6017628539887" accel="4.685618288971284" decel="5.218306906388834" emergencyDecel="10.918323013080252" minGap="7.000970932723117" vClass="passenger" emissionClass="HBEFA4/PC_diesel_Euro-6ab" color="#3498DB" guiShape="passenger/sedan"/>
    <vType id="vtype-vehicle49" length="5.3123804990967525" mass="1529.6793452515215" accel="4.899493984142462" decel="5.040713569884486" emergencyDecel="10.83242512192223" minGap="9.349218315878218" vClass="passenger" emissionClass="HBEFA4/PC_petrol_PreEuro_3WCat_1987-90" color="#3498DB" guiShape="passenger/sedan"/>
    <vType id="vtype-vehicle50" length="6.4689252697593345" mass="1195.7992885708372" accel="2.1423219514950156" decel="3.4154172564704233" emergencyDecel="9.702005099808046" minGap="7.582937637563415" vClass="passenger" emissionClass="HBEFA4/PC_petrol_PreEuro_3WCat_1987-90" color="#3498DB" guiShape="passenger/sedan"/>
    <vType id="vtype-vehicle51" length="5.823919171405251" mass="1678.6236284360743" accel="2.1" decel="2.870485407423761" emergencyDecel="10.665647992456545" minGap="5.257111753565598" vClass="passenger" emissionClass="HBEFA4/PC_diesel_Euro-5" color="#3498DB" guiShape="passenger/sedan"/>
    <vType id="vtype-vehicle52" length="4.88867982908957" mass="1682.760821865201" accel="2.1" decel="2.5940113307370267" emergencyDecel="11.010542594480661" minGap="6.093375263257473" vClass="passenger" emissionClass="HBEFA4/PC_diesel_Euro-4" color="#3498DB" guiShape="passenger/sedan"/>
    <vType id="vtype-vehicle53" length="5.024593690707058" mass="1419.2668253827828" accel="2.1" decel="3.715433980411947" emergencyDecel="8.571225567560534" minGap="7.35115696565946" vClass="passenger" emissionClass="HBEFA4/PC_diesel_Euro-6ab" color="#3498DB" guiShape="passenger/sedan"/>
    <vType id="vtype-vehicle54" length="4.796064934255101" mass="1351.5670172215832" accel="2.1" decel="3.8543254725691054" emergencyDecel="9.702114753234175" minGap="9.484760237930505" vClass="passenger" emissionClass="HBEFA4/PC_diesel_Euro-4" color="#3498DB" guiShape="passenger/sedan"/>
    <vType id="vtype-vehicle55" length="5.524670456788915" mass="1399.2232619130978" accel="3.8500999648688827" decel="4.979965824942747" emergencyDecel="10.252149674978972" minGap="4.445264781486735" vClass="passenger" emissionClass="HBEFA4/PC_diesel_Euro-3" color="#3498DB" guiShape="passenger/sedan"/>
    <vType id="vtype-vehicle56" length="3.0259185800151873" mass="1582.4810526460305" accel="4.914082750544337" decel="4.668015569907741" emergencyDecel="10.537937764368577" minGap="6.048098941687007" vClass="passenger" emissionClass="HBEFA4/PC_petrol_Euro-2" color="#3498DB" guiShape="passenger/sedan"/>
    <vType id="vtype-vehicle57" length="5.231889450622987" mass="1613.3763465739892" accel="2.778149312735386" decel="3.1139920705831576" emergencyDecel="8.821623689123683" minGap="6.783610776344735" vClass="passenger" emissionClass="HBEFA4/PC_diesel_Euro-6ab" color="#3498DB" guiShape="passenger/sedan"/>
    <vType id="vtype-vehicle58" length="5.3942926858692255" mass="1971.0320321861684" accel="6.157952303743249" decel="3.9306732220491103" emergencyDecel="9.917766245881323" minGap="3.8346310752666577" vClass="passenger" emissionClass="HBEFA4/PC_petrol_PreEuro_3WCat_1987-90" color="#3498DB" guiShape="passenger/sedan"/>
    <vType id="vtype-vehicle59" length="4.32671498822133" mass="1406.7791744615702" accel="3.968944271265282" decel="3.975431734118553" emergencyDecel="8.957823163805816" minGap="5.769783678664808" vClass="passenger" emissionClass="HBEFA4/PC_LPG_petrol_Euro-4_(LPG)" color="#3498DB" guiShape="passenger/sedan"/>
    <vType id="vtype-vehicle60" length="4.510789423059055" mass="1182.0156427537488" accel="3.8190799976510976" decel="3.481899548043262" emergencyDecel="8.17207086138603" minGap="7.218583489702232" vClass="passenger" emissionClass="HBEFA4/PC_diesel_Euro-5" color="#3498DB" guiShape="passenger/sedan"/>
    <vType id="vtype-vehicle61" length="4.887577577839325" mass="1520.5577371959985" accel="2.1" decel="5.161702711480683" emergencyDecel="13.10398999795279" minGap="8.055293050074216" vClass="passenger" emissionClass="HBEFA4/PC_petrol_PreEuro_3WCat_1987-90" color="#3498DB" guiShape="passenger/sedan"/>
    <vType id="vtype-vehicle62" length="5.613218017265469" mass="1641.6221554694355" accel="3.0037703201864003" decel="3.5432644905069126" emergencyDecel="11.030105106555666" minGap="8.532941974121819" vClass="passenger" emissionClass="HBEFA4/PC_diesel_Euro-6ab" color="#3498DB" guiShape="passenger/sedan"/>
    <vType id="vtype-vehicle63" length="2.728369259807847" mass="1539.9828284318219" accel="2.1" decel="5.365355914657629" emergencyDecel="10.138582038481989" minGap="8.56038210827867" vClass="passenger" emissionClass="HBEFA4/PC_petrol_Euro-1" color="#3498DB" guiShape="passenger/sedan"/>
    <vType id="vtype-vehicle64" length="5.142231874915726" mass="1645.6677674751822" accel="3.6734632609907" decel="3.797876019668087" emergencyDecel="10.080589077785762" minGap="8.06542649705917" vClass="passenger" emissionClass="HBEFA4/PC_diesel_Euro-6ab" color="#3498DB" guiShape="passenger/sedan"/>
    <vType id="vtype-vehicle65" length="5.278586161715808" mass="1674.9257961070539" accel="2.1" decel="5.334496533259643" emergencyDecel="10.396590961210036" minGap="4.336562617344569" vClass="passenger" emissionClass="HBEFA4/PC_diesel_Euro-5" color="#3498DB" guiShape="passenger/sedan"/>
    <vType id="vtype-vehicle66" length="4.4487562572043045" mass="1840.1786710609317" accel="2.1" decel="4.180655253680733" emergencyDecel="8.760441514921533" minGap="5.647786561178709" vClass="passenger" emissionClass="HBEFA4/PC_LPG_petrol_Euro-4_(LPG)" color="#3498DB" guiShape="passenger/sedan"/>
    <vType id="vtype-vehicle67" length="3.8261804044284085" mass="1773.0600973201695" accel="2.1" decel="4.084645731803934" emergencyDecel="8.533133454915891" minGap="5.9385644178677754" vClass="passenger" emissionClass="HBEFA4/PC_diesel_Euro-5" color="#3498DB" guiShape="passenger/sedan"/>
    <vType id="vtype-vehicle68" length="4.42632093303869" mass="1760.8796899190875" accel="2.409567916159287" decel="4.381508128947397" emergencyDecel="11.624995065913058" minGap="5.429580775121677" vClass="passenger" emissionClass="HBEFA4/PC_petrol_Euro-4" color="#3498DB" guiShape="passenger/sedan"/>
    <vType id="vtype-vehicle69" length="2.5" mass="1229.312443931553" accel="2.1" decel="4.473920040999661" emergencyDecel="8.768211346032764" minGap="5.252939007622182" vClass="passenger" emissionClass="HBEFA4/PC_diesel_Euro-6ab" color="#3498DB" guiShape="passenger/sedan"/>
    <vType id="vtype-vehicle70" length="4.170485743494641" mass="1594.1221651110466" accel="2.502185742142492" decel="3.6053078453779133" emergencyDecel="11.997889075842494" minGap="7.050913805620165" vClass="passenger" emissionClass="HBEFA4/PC_diesel_Euro-3" color="#3498DB" guiShape="passenger/sedan"/>
    <vType id="vtype-vehicle71" length="4.09324166918558" mass="1649.6744618103735" accel="2.1" decel="4.448477930451107" emergencyDecel="9.25142312727489" minGap="6.637852480228915" vClass="passenger" emissionClass="HBEFA4/PC_diesel_Euro-5" color="#3498DB" guiShape="passenger/sedan"/>
    <vType id="vtype-vehicle72" length="3.2517343491039807" mass="1436.4489348219772" accel="2.6544471725496277" decel="6.396842092213634" emergencyDecel="10.335695035384507" minGap="4.0232638354638555" vClass="passenger" emissionClass="HBEFA4/PC_petrol_Euro-5" color="#3498DB" guiShape="passenger/sedan"/>
    <vType id="vtype-vehicle73" length="4.20617992657414" mass="1774.3447096415691" accel="2.5788021819560982" decel="3.522793548747097" emergencyDecel="11.196505184704016" minGap="2.8424686665701326" vClass="passenger" emissionClass="HBEFA4/PC_diesel_Euro-3" color="#3498DB" guiShape="passenger/sedan"/>
    <vType id="vtype-vehicle74" length="4.587150127746906" mass="1541.771483855049" accel="2.484625491291876" decel="4.348869407870089" emergencyDecel="9.770143150522623" minGap="8.214562138358199" vClass="passenger" emissionClass="HBEFA4/PC_petrol_Euro-3" color="#3498DB" guiShape="passenger/sedan"/>
    <vType id="vtype-vehicle75" length="3.5479084087041457" mass="2029.7962288998804" accel="2.1" decel="4.298068576978483" emergencyDecel="8.704928327938577" minGap="6.498655518404518" vClass="passenger" emissionClass="HBEFA4/PC_diesel_Euro-4" color="#3498DB" guiShape="passenger/sedan"/>
    <vType id="vtype-vehicle76" length="3.7666312012987047" mass="1859.56728892559" accel="4.249675966971795" decel="3.7179808330108948" emergencyDecel="9.696238655007978" minGap="6.752501008910043" vClass="passenger" emissionClass="HBEFA4/PC_petrol_PreEuro_3WCat_1987-90" color="#3498DB" guiShape="passenger/sedan"/>
    <vType id="vtype-vehicle77" length="5.105447417973327" mass="1430.894018363269" accel="4.288048295663975" decel="4.957713919817964" emergencyDecel="9.393389249936615" minGap="3.0254415829098695" vClass="passenger" emissionClass="HBEFA4/PC_petrol_PreEuro_3WCat_1987-90" color="#3498DB" guiShape="passenger/sedan"/>
    <vType id="vtype-vehicle78" length="4.314908963924025" mass="1596.0286052435576" accel="3.672261968476258" decel="3.8446809391064956" emergencyDecel="9.156877248724264" minGap="7.1743769390520145" vClass="passenger" emissionClass="HBEFA4/PC_petrol_Euro-4" color="#3498DB" guiShape="passenger/sedan"/>
    <vType id="vtype-vehicle79" length="4.953133613035631" mass="1858.6911746848098" accel="4.7999122403338905" decel="4.439888993557312" emergencyDecel="9.791880092750215" minGap="7.032323173476581" vClass="passenger" emissionClass="HBEFA4/PC_diesel_Euro-5" color="#3498DB" guiShape="passenger/sedan"/>
    <vType id="vtype-vehicle80" length="4.850991807846587" mass="1443.449971661735" accel="2.1" decel="4.031957256698799" emergencyDecel="9.494030973257448" minGap="9.702358788135818" vClass="passenger" emissionClass="HBEFA4/PC_diesel_Euro-3" color="#3498DB" guiShape="passenger/sedan"/>
    <vType id="vtype-vehicle81" length="4.468391477621924" mass="1936.3750923194211" accel="4.24235261678316" decel="3.688739370952595" emergencyDecel="10.372624287601928" minGap="9.485299534361875" vClass="passenger" emissionClass="HBEFA4/PC_diesel_Euro-6ab" color="#3498DB" guiShape="passenger/sedan"/>
    <vType id="vtype-vehicle82" length="5.6237172844701915" mass="1811.539050803208" accel="4.9424262887689" decel="3.9632958601733375" emergencyDecel="11.299031860988098" minGap="5.835183342946" vClass="passenger" emissionClass="HBEFA4/PC_petrol_PreEuro_3WCat_1987-90" color="#3498DB" guiShape="passenger/sedan"/>
    <vType id="vtype-vehicle83" length="3.625785028298142" mass="1678.9355022822233" accel="5.007892646295253" decel="4.157760141945737" emergencyDecel="9.159687809765725" minGap="4.041756875468926" vClass="passenger" emissionClass="HBEFA4/PC_petrol_Euro-2" color="#3498DB" guiShape="passenger/sedan"/>
    <vType id="vtype-vehicle84" length="4.011842223320107" mass="1450.0201694637249" accel="6.676538151630451" decel="4.748420047206755" emergencyDecel="10.148270743322394" minGap="8.834151535201364" vClass="passenger" emissionClass="HBEFA4/PC_diesel_Euro-4" color="#3498DB" guiShape="passenger/sedan"/>
    <vType id="vtype-vehicle85" length="3.1793200778671453" mass="1162.4999945926663" accel="5.606161718881092" decel="3.6014059791500577" emergencyDecel="10.910671863282117" minGap="7.517769493196551" vClass="passenger" emissionClass="HBEFA4/PC_petrol_Euro-3" color="#3498DB" guiShape="passenger/sedan"/>
    <vType id="vtype-vehicle86" length="3.8639992319418734" mass="1645.4166507421392" accel="3.51426561254468" decel="3.7528289646985775" emergencyDecel="10.459922132595574" minGap="5.698943254485983" vClass="passenger" emissionClass="HBEFA4/PC_diesel_Euro-5" color="#3498DB" guiShape="passenger/sedan"/>
    <vType id="vtype-vehicle87" length="5.516008822755329" mass="1645.345069417783" accel="2.1" decel="2.225147832091633" emergencyDecel="9.967337179150611" minGap="5.827370663774541" vClass="passenger" emissionClass="HBEFA4/PC_diesel_Euro-6ab" color="#3498DB" guiShape="passenger/sedan"/>
    <vType id="vtype-vehicle88" length="4.406675841992457" mass="1235.1986778257233" accel="3.004294836307743" decel="4.479915627249504" emergencyDecel="10.984312213184381" minGap="5.149878495725154" vClass="passenger" emissionClass="HBEFA4/PC_petrol_PreEuro_3WCat_1987-90" color="#3498DB" guiShape="passenger/sedan"/>
    <vType id="vtype-vehicle89" length="3.8952518112352155" mass="1898.9477889283053" accel="2.426620989959585" decel="3.0802659946088347" emergencyDecel="10.521339163399546" minGap="6.911743905262024" vClass="passenger" emissionClass="HBEFA4/PC_petrol_PreEuro_3WCat_1987-90" color="#3498DB" guiShape="passenger/sedan"/>
    <vType id="vtype-vehicle90" length="5.004998101622921" mass="1665.531353545851" accel="2.1" decel="5.252539884782844" emergencyDecel="10.23828806621834" minGap="10.471937973888995" vClass="passenger" emissionClass="HBEFA4/PC_diesel_Euro-3" color="#3498DB" guiShape="passenger/sedan"/>
    <vType id="vtype-vehicle91" length="5.932783199650116" mass="1539.1839649782714" accel="3.680129667427468" decel="3.1424456932361036" emergencyDecel="10.496911388639715" minGap="2.3354555047785777" vClass="passenger" emissionClass="HBEFA4/PC_petrol_Euro-3" color="#3498DB" guiShape="passenger/sedan"/>
    <vType id="vtype-vehicle92" length="5.971496507092531" mass="1676.3216011897034" accel="2.1" decel="3.6637070944077568" emergencyDecel="10.220484488920725" minGap="8.225617831200076" vClass="passenger" emissionClass="HBEFA4/PC_LPG_petrol_Euro-4_(LPG)" color="#3498DB" guiShape="passenger/sedan"/>
    <vType id="vtype-vehicle93" length="4.772840065564327" mass="1357.9374944968781" accel="2.1" decel="4.460901514820188" emergencyDecel="10.434756066458059" minGap="5.198864512177895" vClass="passenger" emissionClass="HBEFA4/PC_diesel_Euro-5" color="#3498DB" guiShape="passenger/sedan"/>
    <vType id="vtype-vehicle94" length="4.698273325332061" mass="1374.1726383064808" accel="5.085078677018243" decel="3.275197864113433" emergencyDecel="9.979850398876266" minGap="5.201497498302508" vClass="passenger" emissionClass="HBEFA4/PC_diesel_Euro-5" color="#3498DB" guiShape="passenger/sedan"/>
    <vType id="vtype-vehicle95" length="4.618830538844225" mass="1857.3086938590495" accel="2.422987876514106" decel="4.386066621550558" emergencyDecel="10.410764137417672" minGap="7.231967952100231" vClass="passenger" emissionClass="HBEFA4/PC_diesel_Euro-4" color="#3498DB" guiShape="passenger/sedan"/>
    <vType id="vtype-vehicle96" length="5.094778303389683" mass="1544.704985949437" accel="3.4008550110932134" decel="3.8054462908871014" emergencyDecel="10.77281536791088" minGap="5.460471933471039" vClass="passenger" emissionClass="HBEFA4/PC_PHEV_petrol_Euro-6d_(El)" color="#3498DB" guiShape="passenger/sedan"/>
    <vType id="vtype-vehicle97" length="3.6894223290941195" mass="1673.8812565812118" accel="2.1" decel="2.8652465419007664" emergencyDecel="10.667785465964148" minGap="9.909209032650576" vClass="passenger" emissionClass="HBEFA4/PC_petrol_Euro-6ab" color="#3498DB" guiShape="passenger/sedan"/>
    <vType id="vtype-vehicle98" length="3.913939276167551" mass="1486.2766873591524" accel="2.6660976515124046" decel="4.783378894278164" emergencyDecel="11.182388944730112" minGap="7.415961387369116" vClass="passenger" emissionClass="HBEFA4/PC_petrol_Euro-5" color="#3498DB" guiShape="passenger/sedan"/>