<?xml version="1.0" ?>
<routes>
    <vType id="vtype-vehicle0" length="2.9641348750103704" mass="1791.9687294944274" accel="2.1" decel="4.70040542727809" emergencyDecel="9.657631548045247" minGap="7.533688371091164" vClass="passenger" emissionClass="HBEFA4/PC_diesel_1986-1988" color="#3498DB" guiShape="passenger/sedan"/>
    <vType id="vtype-vehicle1" length="5.116731771097609" mass="1566.3871494980501" accel="4.8286906305225425" decel="3.1652966177275426" emergencyDecel="9.3860027285534" minGap="10.195907250432427" vClass="passenger" emissionClass="HBEFA4/PC_LPG_petrol_Euro-4_(LPG)" color="#3498DB" guiShape="passenger/sedan"/>
    <vType id="vtype-vehicle2" length="4.856374259876982" mass="2023.0038226787337" accel="7.220399719374738" decel="4.837911820994147" emergencyDecel="10.058723136637747" minGap="6.107175014688318" vClass="passenger" emissionClass="HBEFA4/PC_petrol_Euro-5" color="#3498DB" guiShape="passenger/sedan"/>
    <vType id="vtype-vehicle3" length="4.657955458475428" mass="1615.9874362197047" accel="2.1" decel="5.606593852369372" emergencyDecel="10.142754199916965" minGap="6.267819812069761" vClass="passenger" emissionClass="HBEFA4/PC_petrol_PreEuro_3WCat_1987-90" color="#3498DB" guiShape="passenger/sedan"/>
    <vType id="vtype-vehicle4" length="5.758396652771614" mass="1540.9245022744562" accel="2.1892091788713914" decel="4.494768341326515" emergencyDecel="10.935067838432566" minGap="9.036016276906185" vClass="passenger" emissionClass="HBEFA4/PC_diesel_Euro-3" color="#3498DB" guiShape="passenger/sedan"/>
    <vType id="vtype-vehicle5" length="5.0964140359394925" mass="1245.6837093043011" accel="5.19410624194037" decel="4.29536118299011" emergencyDecel="11.613839382088353" minGap="6.48820622142714" vClass="passenger" emissionClass="HBEFA4/PC_petrol_Euro-4" color="#3498DB" guiShape="passenger/sedan"/>
    <vType id="vtype-vehicle6" length="4.163502772342596" mass="1799.7288823795384" accel="2.1" decel="2" emergencyDecel="10.254320017504302" minGap="9.919725093564097" vClass="passenger" emissionClass="HBEFA4/PC_diesel_Euro-6ab" color="#3498DB" guiShape="passenger/sedan"/>
    <vType id="vtype-vehicle7" length="3.75963011435839" mass="1709.0555928261274" accel="5.168451996520444" decel="4.079893374661515" emergencyDecel="10.824479701731146" minGap="5.975257769996766" vClass="passenger" emissionClass="HBEFA4/PC_petrol_Euro-4" color="#3498DB" guiShape="passenger/sedan"/>
    <vType id="vtype-vehicle8" length="5.656440644135744" mass="1619.9855574678104" accel="2.858863396920186" decel="5.278841953530561" emergencyDecel="8.823814794671058" minGap="4.925693371174994" vClass="passenger" emissionClass="HBEFA4/PC_petrol_Euro-6ab" color="#3498DB" guiShape="passenger/sedan"/>
    <vType id="vtype-vehicle9" length="3.7740597431392136" mass="1690.6569888584183" accel="3.6020954292208547" decel="3.1601170308446207" emergencyDecel="10.822685980466336" minGap="6.9871560331170395" vClass="passenger" emissionClass="HBEFA4/PC_petrol_Euro-6ab" color="#3498DB" guiShape="passenger/sedan"/>
    <vType id="vtype-vehicle10" length="4.401410484769436" mass="1580.1492074505973" accel="3.521145162808856" decel="3.128256180370768" emergencyDecel="10.5705818681791" minGap="7.570151793366569" vClass="passenger" emissionClass="HBEFA4/PC_petrol_Euro-2" color="#3498DB" guiShape="passenger/sedan"/>
    <vType id="vtype-vehicle11" length="3.4309472588676124" mass="1377.749698575085" accel="2.1" decel="2" emergencyDecel="10.595810354183058" minGap="10.888445283512603" vClass="passenger" emissionClass="HBEFA4/PC_CNG_petrol_Euro-4_(CNG)" color="#3498DB" guiShape="passenger/sedan"/>
    <vType id="vtype-vehicle12" length="5.438530512999634" mass="1883.0844248952599" accel="2.994056214925487" decel="4.501778594363612" emergencyDecel="10.582302736138097" minGap="6.528743874534247" vClass="passenger" emissionClass="HBEFA4/PC_diesel_Euro-5" color="#3498DB" guiShape="passenger/sedan"/>
    <vType id="vtype-vehicle13" length="5.205646909312126" mass="1242.981747570474" accel="2.8622796542257904" decel="3.811789061215389" emergencyDecel="9.566966336098368" minGap="3.7395884660000775" vClass="passenger" emissionClass="HBEFA4/PC_diesel_Euro-6ab" color="#3498DB" guiShape="passenger/sedan"/>
    <vType id="vtype-vehicle14" length="6.6027750825373985" mass="1540.025417928992" accel="2.1" decel="3.401515141753689" emergencyDecel="10.611242771891128" minGap="8.307345463037144" vClass="passenger" emissionClass="HBEFA4/PC_petrol_Euro-3" color="#3498DB" guiShape="passenger/sedan"/>
    <vType id="vtype-vehicle15" length="4.579961197570118" mass="1920.3862439690442" accel="2.1" decel="4.030977993512945" emergencyDecel="9.374861872580247" minGap="8.749231439458034" vClass="passenger" emissionClass="HBEFA4/PC_diesel_Euro-4" color="#3498DB" guiShape="passenger/sedan"/>
    <vType id="vtype-vehicle16" length="5.84230737647267" mass="1701.1665612110182" accel="3.240706686621365" decel="5.317743584858947" emergencyDecel="10.847678072586245" minGap="3.5960442652672033" vClass="passenger" emissionClass="HBEFA4/PC_diesel_Euro-5" color="#3498DB" guiShape="passenger/sedan"/>
    <vType id="vtype-vehicle17" length="3.521093741279648" mass="1457.382965655904" accel="3.5545074670178374" decel="3.5104106815589864" emergencyDecel="9.285053131379177" minGap="12.374963778459238" vClass="passenger" emissionClass="HBEFA4/PC_diesel_Euro-5" color="#3498DB" guiShape="passenger/sedan"/>
    <vType id="vtype-vehicle18" length="5.958249167732767" mass="1667.444975215445" accel="2.964975205171579" decel="4.067312854413365" emergencyDecel="9.535344022580459" minGap="4.716020997295512" vClass="passenger" emissionClass="HBEFA4/PC_diesel_1986-1988" color="#3498DB" guiShape="passenger/sedan"/>
    <vType id="vtype-vehicle19" length="5.0976065259914485" mass="1622.8551808919992" accel="2.4954966871133295" decel="3.9938957818574203" emergencyDecel="10.105702612149894" minGap="7.553389390276754" vClass="passenger" emissionClass="HBEFA4/PC_petrol_Euro-4" color="#3498DB" guiShape="passenger/sedan"/>
    <vType id="vtype-vehicle20" length="4.638472306312744" mass="1265.5479783023825" accel="2.1" decel="5.173910674166466" emergencyDecel="10.397470457385047" minGap="7.893696148545104" vClass="passenger" emissionClass="HBEFA4/PC_petrol_Euro-6ab" color="#3498DB" guiShape="passenger/sedan"/>
    <vType id="vtype-vehicle21" length="3.7870316672592614" mass="1596.1839568077287" accel="2.1" decel="5.137672585581338" emergencyDecel="8.62638110492804" minGap="7.693493335245115" vClass="passenger" emissionClass="HBEFA4/PC_diesel_Euro-6ab" color="#3498DB" guiShape="passenger/sedan"/>
    <vType id="vtype-vehicle22" length="5.557509602716977" mass="1547.997122584138" accel="2.1" decel="2.2257034600375585" emergencyDecel="9.933307527738043" minGap="10.329648148972254" vClass="passenger" emissionClass="HBEFA4/PC_diesel_Euro-3" color="#3498DB" guiShape="passenger/sedan"/>
    <vType id="vtype-vehicle23" length="4.300333623536988" mass="1344.369498711576" accel="2.1" decel="3.771435904471992" emergencyDecel="10.856980362342703" minGap="10.469130637100214" vClass="passenger" emissionClass="HBEFA4/PC_petrol_Euro-5" color="#3498DB" guiShape="passenger/sedan"/>
    <vType id="vtype-vehicle24" length="6.546095929008285" mass="1901.863189913723" accel="2.1" decel="5.020212369205096" emergencyDecel="9.27615394819791" minGap="8.940854111922622" vClass="passenger" emissionClass="HBEFA4/PC_diesel_Euro-4" color="#3498DB" guiShape="passenger/sedan"/>
    <vType id="vtype-vehicle25" length="5.757355348831443" mass="1511.1531682131344" accel="2.1" decel="4.119740704372164" emergencyDecel="10.957252867047172" minGap="7.317162718716232" vClass="passenger" emissionClass="HBEFA4/PC_diesel_Euro-6ab" color="#3498DB" guiShape="passenger/sedan"/>
    <vType id="vtype-vehicle26" length="5.059167593260497" mass="1631.506521743194" accel="3.4875543191207496" decel="4.977615665812805" emergencyDecel="12.61699687679571" minGap="2.9832293694894867" vClass="passenger" emissionClass="HBEFA4/PC_petrol_Euro-4" color="#3498DB" guiShape="passenger/sedan"/>
    <vType id="vtype-vehicle27" length="4.76020719004137" mass="1913.891498776115" accel="4.655157394260972" decel="2.783933570561877" emergencyDecel="10.41077886533943" minGap="5.5293013305348815" vClass="passenger" emissionClass="HBEFA4/PC_PHEV_petrol_Euro-6d_(El)" color="#3498DB" guiShape="passenger/sedan"/>
    <vType id="vtype-vehicle28" length="4.094545835194472" mass="1560.4642865609933" accel="2.1" decel="2.861654899400005" emergencyDecel="11.672018025092978" minGap="2.2717473803063264" vClass="passenger" emissionClass="HBEFA4/PC_diesel_Euro-4" color="#3498DB" guiShape="passenger/sedan"/>
    <vType id="vtype-vehicle29" length="3.5194863996354186" mass="1490.5096953983382" accel="5.296099404605739" decel="4.255144935302283" emergencyDecel="10.619664507829714" minGap="8.751431265598772" vClass="passenger" emissionClass="HBEFA4/PC_diesel_Euro-6ab" color="#3498DB" guiShape="passenger/sedan"/>
    <vType id="vtype-vehicle30" length="4.744835652435742" mass="1452.2396915528745" accel="2.861202380905472" decel="4.499152149306066" emergencyDecel="9.639488248229938" minGap="3.0428836377695876" vClass="passenger" emissionClass="HBEFA4/PC_diesel_Euro-6ab" color="#3498DB" guiShape="passenger/sedan"/>
    <vType id="vtype-vehicle31" length="4.507626743395282" mass="1661.4897315868734" accel="3.1084319387187986" decel="3.6436575442572448" emergencyDecel="11.441284329008173" minGap="7.296482665918495" vClass="passenger" emissionClass="HBEFA4/PC_petrol_PreEuro_3WCat_1987-90" color="#3498DB" guiShape="passenger/sedan"/>
    <vType id="vtype-vehicle32" length="5.3873006640333045" mass="1704.2164770216716" accel="6.670432982641092" decel="2.6897056060298574" emergencyDecel="9.96136128212056" minGap="7.1377088409778855" vClass="passenger" emissionClass="HBEFA4/PC_petrol_Euro-6ab" color="#3498DB" guiShape="passenger/sedan"/>
    <vType id="vtype-vehicle33" length="2.5" mass="1749.2034514683085" accel="3.0357210673983657" decel="3.3433067711459374" emergencyDecel="9.202773423059051" minGap="7.1620369616178206" vClass="passenger" emissionClass="HBEFA4/PC_petrol_Euro-6ab" color="#3498DB" guiShape="passenger/sedan"/>
    <vType id="vtype-vehicle34" length="4.228032518957445" mass="1597.1258025747752" accel="2.1" decel="2.72200628420457" emergencyDecel="11.634649917066632" minGap="5.107824376407545" vClass="passenger" emissionClass="HBEFA4/PC_diesel_Euro-4" color="#3498DB" guiShape="passenger/sedan"/>
    <vType id="vtype-vehicle35" length="4.583600362402328" mass="1917.1374564409862" accel="2.1" decel="2.8624545423780856" emergencyDecel="9.91334303899843" minGap="9.372263114745696" vClass="passenger" emissionClass="HBEFA4/PC_diesel_Euro-4" color="#3498DB" guiShape="passenger/sedan"/>
    <vType id="vtype-vehicle36" length="5.248048146358933" mass="1484.1897258898346" accel="2.9315306224757802" decel="3.7522517995082403" emergencyDecel="8.787072259052108" minGap="5.5337989019205125" vClass="passenger" emissionClass="HBEFA4/PC_petrol_Euro-3" color="#3498DB" guiShape="passenger/sedan"/>
    <vType id="vtype-vehicle37" length="5.273536780744315" mass="1786.6532243764755" accel="2.1" decel="2" emergencyDecel="8.233225943076254" minGap="8.814220539421122" vClass="passenger" emissionClass="HBEFA4/PC_petrol_Euro-6ab" color="#3498DB" guiShape="passenger/sedan"/>
    <vType id="vtype-vehicle38" length="4.370819653047003" mass="1791.610696095289" accel="2.1" decel="3.4471137019238327" emergencyDecel="11.0827583600191" minGap="10.812874556443605" vClass="passenger" emissionClass="HBEFA4/PC_diesel_Euro-5" color="#3498DB" guiShape="passenger/sedan"/>
    <vType id="vtype-vehicle39" length="5.7304930908604605" mass="1497.0936121739126" accel="3.1356678029306475" decel="5.091848824677384" emergencyDecel="10.419170044847391" minGap="5.150631776148014" vClass="passenger" emissionClass="HBEFA4/PC_petrol_Euro-4" color="#3498DB" guiShape="passenger/sedan"/>
    <vType id="vtype-vehicle40" length="5.138320550859178" mass="1463.235479710871" accel="3.868694870942344" decel="2.9899985625377017" emergencyDecel="9.602650003834496" minGap="7.6437596528838485" vClass="passenger" emissionClass="HBEFA4/PC_LPG_petrol_Euro-4_(LPG)" color="#3498DB" guiShape="passenger/sedan"/>
    <vType id="vtype-vehicle41" length="4.318762729451937" mass="1926.2387274703" accel="2.999096066653998" decel="4.0159880661607" emergencyDecel="8.829017394634072" minGap="2.9762479336982883" vClass="passenger" emissionClass="HBEFA4/PC_petrol_Euro-4" color="#3498DB" guiShape="passenger/sedan"/>
    <vType id="vtype-vehicle42" length="4.334822911492875" mass="1254.135967478087" accel="2.1" decel="4.677723191738865" emergencyDecel="9.386630418085145" minGap="8.582665514118911" vClass="passenger" emissionClass="HBEFA4/PC_diesel_Euro-5" color="#3498DB" guiShape="passenger/sedan"/>
    <vType id="vtype-vehicle43" length="5.4413368715881605" mass="1729.1436823340157" accel="2.1" decel="4.260908859484838" emergencyDecel="10.313150691243957" minGap="4.8576760195811275" vClass="passenger" emissionClass="HBEFA4/PC_diesel_Euro-6ab" color="#3498DB" guiShape="passenger/sedan"/>
    <vType id="vtype-vehicle44" length="4.212184043137174" mass="2084.0395832384943" accel="2.1" decel="4.0202025446861995" emergencyDecel="11.471767782919859" minGap="3.641057706304336" vClass="passenger" emissionClass="HBEFA4/PC_diesel_Euro-4" color="#3498DB" guiShape="passenger/sedan"/>
    <vType id="vtype-vehicle45" length="6.606688583149056" mass="1374.1344467582667" accel="2.1" decel="3.660065662388276" emergencyDecel="10.503271393134638" minGap="6.940375620504328" vClass="passenger" emissionClass="HBEFA4/PC_diesel_Euro-4" color="#3498DB" guiShape="passenger/sedan"/>
    <vType id="vtype-vehicle46" length="4.123995254423271" mass="1652.1534330589025" accel="5.492414446775381" decel="5.529178316596971" emergencyDecel="9.662991918868283" minGap="2.55922668347137" vClass="passenger" emissionClass="HBEFA4/PC_petrol_Euro-4" color="#3498DB" guiShape="passenger/sedan"/>
    <vType id="vtype-vehicle47" length="5.792692912541741" mass="1360.700776622838" accel="3.081672508935009" decel="5.8759881715732" emergencyDecel="11.478131817869356" minGap="8.20485400097475" vClass="passenger" emissionClass="HBEFA4/PC_diesel_Euro-4" color="#3498DB" guiShape="passenger/sedan"/>
    <vType id="vtype-vehicle48" length="4.407206224920727" mass="1680.0339280723308" accel="3.3321655901055025" decel="5.4517948785490855" emergencyDecel="10.948249715736377" minGap="10.94139520537798" vClass="passenger" emissionClass="HBEFA4/PC_petrol_Euro-6ab" color="#3498DB" guiShape="passenger/sedan"/>
    <vType id="vtype-vehicle49" length="5.681891659297641" mass="1974.8870376352945" accel="5.470229940169787" decel="4.611425686504922" emergencyDecel="9.113374211156577" minGap="7.895528068587112" vClass="passenger" emissionClass="HBEFA4/PC_diesel_Euro-5" color="#3498DB" guiShape="passenger/sedan"/>
    <vType id="vtype-vehicle50" length="6.272347247497541" mass="1646.783404918137" accel="2.1" decel="5.008584385376259" emergencyDecel="9.795000427669729" minGap="8.537645971385908" vClass="passenger" emissionClass="HBEFA4/PC_diesel_Euro-6ab" color="#3498DB" guiShape="passenger/sedan"/>
    <vType id="vtype-vehicle51" length="5.416438045874514" mass="1386.7987892607825" accel="2.1" decel="4.8104380732265675" emergencyDecel="9.407144770893275" minGap="8.768696940952687" vClass="passenger" emissionClass="HBEFA4/PC_LPG_petrol_Euro-6_(LPG)" color="#3498DB" guiShape="passenger/sedan"/>
    <vType id="vtype-vehicle52" length="3.338232781779052" mass="1793.925996817323" accel="2.2471766494812977" decel="2.739019498653896" emergencyDecel="11.426301488491424" minGap="7.248709731361904" vClass="passenger" emissionClass="HBEFA4/PC_diesel_Euro-6ab" color="#3498DB" guiShape="passenger/sedan"/>
    <vType id="vtype-vehicle53" length="5.106594176834368" mass="1747.9750130261018" accel="2.1" decel="3.8569083411372107" emergencyDecel="9.765883536069516" minGap="7.152282494175453" vClass="passenger" emissionClass="HBEFA4/PC_petrol_Euro-1" color="#3498DB" guiShape="passenger/sedan"/>
    <vType id="vtype-vehicle54" length="4.03314924559674" mass="1564.2864991504866" accel="2.1" decel="4.693789081871005" emergencyDecel="9.577713467907861" minGap="12.00772348159034" vClass="passenger" emissionClass="HBEFA4/PC_diesel_Euro-6ab" color="#3498DB" guiShape="passenger/sedan"/>
    <vType id="vtype-vehicle55" length="5.05800317300164" mass="1897.8248077873627" accel="4.639272325253975" decel="3.493715463578967" emergencyDecel="10.701397734134256" minGap="5.624309979612783" vClass="passenger" emissionClass="HBEFA4/PC_diesel_Euro-3" color="#3498DB" guiShape="passenger/sedan"/>
    <vType id="vtype-vehicle56" length="6.5730349681019025" mass="1947.2666446615244" accel="3.423521336762788" decel="2.5418730705226453" emergencyDecel="9.845856204707578" minGap="10.817981005116426" vClass="passenger" emissionClass="HBEFA4/PC_petrol_Euro-5" color="#3498DB" guiShape="passenger/sedan"/>
    <vType id="vtype-vehicle57" length="4.490792259429424" mass="1693.5135139420431" accel="2.1" decel="3.266520531460536" emergencyDecel="10.191621790500248" minGap="7.733781674768598" vClass="passenger" emissionClass="HBEFA4/PC_petrol_PreEuro_3WCat_1987-90" color="#3498DB" guiShape="passenger/sedan"/>
    <vType id="vtype-vehicle58" length="5.0932046896730885" mass="1770.9444448600743" accel="2.1" decel="4.303035503201174" emergencyDecel="11.976071003852901" minGap="10.15120575765046" vClass="passenger" emissionClass="HBEFA4/PC_PHEV_petrol_Euro-6d_(El)" color="#3498DB" guiShape="passenger/sedan"/>
    <vType id="vtype-vehicle59" length="5.995917816735591" mass="1762.2728856866534" accel="2.1" decel="3.0759321777621054" emergencyDecel="9.815628272012052" minGap="5.814431283730648" vClass="passenger" emissionClass="HBEFA4/PC_diesel_Euro-4" color="#3498DB" guiShape="passenger/sedan"/>
    <vType id="vtype-vehicle60" length="4.429065865525574" mass="1982.2622373660502" accel="2.1" decel="4.733647564276855" emergencyDecel="9.040321033703021" minGap="9.561684932944555" vClass="passenger" emissionClass="HBEFA4/PC_petrol_PreEuro_3WCat_1987-90" color="#3498DB" guiShape="passenger/sedan"/>
    <vType id="vtype-vehicle61" length="5.124784596453585" mass="1582.638819139445" accel="2.1" decel="2.3607781248630038" emergencyDecel="9.59519958833768" minGap="6.929662680958161" vClass="passenger" emissionClass="HBEFA4/PC_diesel_Euro-2" color="#3498DB" guiShape="passenger/sedan"/>
    <vType id="vtype-vehicle62" length="5.128707973666243" mass="1372.2565842416107" accel="2.7519203774957184" decel="2.091671178508307" emergencyDecel="12.006565933144541" minGap="4.108988183464367" vClass="passenger" emissionClass="HBEFA4/PC_petrol_Euro-4" color="#3498DB" guiShape="passenger/sedan"/>
    <vType id="vtype-vehicle63" length="3.7779860501864295" mass="1510.258215493151" accel="2.8635260711640473" decel="3.5937724832471583" emergencyDecel="10.366016802196082" minGap="5.788218504856586" vClass="passenger" emissionClass="HBEFA4/PC_diesel_Euro-6ab" color="#3498DB" guiShape="passenger/sedan"/>
    <vType id="vtype-vehicle64" length="5.271336688119479" mass="1550.9750817058805" accel="4.28651803115084" decel="4.7833515779658775" emergencyDecel="9.711026229343753" minGap="7.357840085732304" vClass="passenger" emissionClass="HBEFA4/PC_diesel_Euro-6ab" color="#3498DB" guiShape="passenger/sedan"/>
    <vType id="vtype-vehicle65" length="3.7567867099346803" mass="1584.1215118167875" accel="2.1" decel="3.6905411775545494" emergencyDecel="9.810850900962786" minGap="6.9278880575801205" vClass="passenger" emissionClass="HBEFA4/PC_petrol_Euro-4" color="#3498DB" guiShape="passenger/sedan"/>
    <vType id="vtype-vehicle66" length="3.614936898530777" mass="1827.4413445609473" accel="2.1" decel="5.690162302329066" emergencyDecel="8.869677281727311" minGap="6.922577322720757" vClass="passenger" emissionClass="HBEFA4/PC_petrol_PreEuro_3WCat_1987-90" color="#3498DB" guiShape="passenger/sedan"/>
    <vType id="vtype-vehicle67" length="5.218728346691507" mass="1500.8867777278078" accel="2.9397556005026457" decel="3.7031927549454817" emergencyDecel="9.092797053276687" minGap="6.234505017584139" vClass="passenger" emissionClass="HBEFA4/PC_petrol_PreEuro_3WCat_1987-90" color="#3498DB" guiShape="passenger/sedan"/>
    <vType id="vtype-vehicle68" length="3.736364036205426" mass="1701.5540376773993" accel="6.763420240384382" decel="4.2131806246033925" emergencyDecel="9.238830742313212" minGap="4.088859310462259" vClass="passenger" emissionClass="HBEFA4/PC_diesel_Euro-5" color="#3498DB" guiShape="passenger/sedan"/>
    <vType id="vtype-vehicle69" length="5.571784439983964" mass="1636.238354738348" accel="3.705578803457341" decel="5.25202187242351" emergencyDecel="9.794701941827817" minGap="4.018386345587625" vClass="passenger" emissionClass="HBEFA4/PC_diesel_Euro-4" color="#3498DB" guiShape="passenger/sedan"/>
    <vType id="vtype-vehicle70" length="4.658232764480993" mass="1592.1184811242633" accel="3.425715586657381" decel="4.3478617012432235" emergencyDecel="9.696168228772851" minGap="6.130911114807076" vClass="passenger" emissionClass="HBEFA4/PC_LPG_petrol_Euro-5_(LPG)" color="#3498DB" guiShape="passenger/sedan"/>
    <vType id="vtype-vehicle71" length="4.131544099257941" mass="1613.7972362005899" accel="2.1" decel="2.712753542971039" emergencyDecel="10.331783809292759" minGap="6.7369380577708915" vClass="passenger" emissionClass="HBEFA4/PC_diesel_Euro-5" color="#3498DB" guiShape="passenger/sedan"/>
    <vType id="vtype-vehicle72" length="3.744299467336045" mass="1261.2654569798033" accel="4.52441566348531" decel="3.6225909928691618" emergencyDecel="10.533732637713019" minGap="7.6283292097850515" vClass="passenger" emissionClass="HBEFA4/PC_petrol_Euro-6ab" color="#3498DB" guiShape="passenger/sedan"/>
    <vType id="vtype-vehicle73" length="4.434222147017061" mass="1416.3655530891788" accel="4.830501798664678" decel="2.4518958250903458" emergencyDecel="8.346909896224126" minGap="4.512732249695011" vClass="passenger" emissionClass="HBEFA4/PC_petrol_Euro-4" color="#3498DB" guiShape="passenger/sedan"/>
    <vType id="vtype-vehicle74" length="5.72964903414001" mass="2114.413413541869" accel="2.4370255985678173" decel="3.5620187971949817" emergencyDecel="11.390198496785588" minGap="9.02571202974751" vClass="passenger" emissionClass="HBEFA4/PC_petrol_Euro-5" color="#3498DB" guiShape="passenger/sedan"/>
    <vType id="vtype-vehicle75" length="5.314513552203922" mass="1682.5580894762209" accel="3.8142967299488464" decel="4.082893664222072" emergencyDecel="9.311100412867816" minGap="5.888305478312052" vClass="passenger" emissionClass="HBEFA4/PC_petrol_Euro-6ab" color="#3498DB" guiShape="passenger/sedan"/>
    <vType id="vtype-vehicle76" length="6.234678092933824" mass="1334.3449622109024" accel="5.444849420101858" decel="5.062018096496594" emergencyDecel="11.560022171216229" minGap="5.195845061358926" vClass="passenger" emissionClass="HBEFA4/PC_LPG_petrol_Euro-6_(LPG)" color="#3498DB" guiShape="passenger/sedan"/>
    <vType id="vtype-vehicle77" length="5.229223626175376" mass="1490.9174148228533" accel="2.3396907339952033" decel="5.109655185728665" emergencyDecel="9.422546101745999" minGap="6.475842430438528" vClass="passenger" emissionClass="HBEFA4/PC_diesel_Euro-5" color="#3498DB" guiShape="passenger/sedan"/>
    <vType id="vtype-vehicle78" length="6.840060547211481" mass="1438.1262484805368" accel="6.199507008384865" decel="3.1885435488463982" emergencyDecel="9.667881524829596" minGap="6.377351754153091" vClass="passenger" emissionClass="HBEFA4/PC_diesel_Euro-6ab" color="#3498DB" guiShape="passenger/sedan"/>
    <vType id="vtype-vehicle79" length="5.956250881213811" mass="1425.495341118139" accel="2.1" decel="3.234732682541888" emergencyDecel="10.790980231186646" minGap="10.174096125393373" vClass="passenger" emissionClass="HBEFA4/PC_petrol_Euro-3" color="#3498DB" guiShape="passenger/sedan"/>
    <vType id="vtype-vehicle80" length="4.820542680730418" mass="1556.0801275851402" accel="2.8396362575431833" decel="3.931800278583825" emergencyDecel="11.825853213436082" minGap="5.360520328134037" vClass="passenger" emissionClass="HBEFA4/PC_diesel_Euro-5" color="#3498DB" guiShape="passenger/sedan"/>
    <vType id="vtype-vehicle81" length="4.031352455626843" mass="1542.5014370630815" accel="3.1697432079796584" decel="5.0983919065640055" emergencyDecel="11.114769132704529" minGap="8.306350023856961" vClass="passenger" emissionClass="HBEFA4/PC_diesel_Euro-6ab" color="#3498DB" guiShape="passenger/sedan"/>
    <vType id="vtype-vehicle82" length="4.442861687753269" mass="1822.5655112012337" accel="2.1" decel="5.896256438151965" emergencyDecel="9.551555394677106" minGap="10.794281291005998" vClass="passenger" emissionClass="HBEFA4/PC_diesel_Euro-6ab" color="#3498DB" guiShape="passenger/sedan"/>
    <vType id="vtype-vehicle83" length="6.354893034176955" mass="1247.8366340325247" accel="2.1" decel="4.16424550146407" emergencyDecel="10.727040555839437" minGap="7.62528828991003" vClass="passenger" emissionClass="HBEFA4/PC_LPG_petrol_Euro-6_(LPG)" color="#3498DB" guiShape="passenger/sedan"/>
    <vType id="vtype-vehicle84" length="4.852105275276198" mass="1249.789972720895" accel="3.4129591866724476" decel="5.258605584949809" emergencyDecel="11.226408245440146" minGap="4.471357518670883" vClass="passenger" emissionClass="HBEFA4/PC_diesel_Euro-3" color="#3498DB" guiShape="passenger/sedan"/>
    <vType id="vtype-vehicle85" length="4.3818652928366575" mass="1851.974967532296" accel="4.78491426214315" decel="4.315823640345693" emergencyDecel="9.212039035004684" minGap="7.84904260670494" vClass="passenger" emissionClass="HBEFA4/PC_diesel_Euro-6ab" color="#3498DB" guiShape="passenger/sedan"/>
    <vType id="vtype-vehicle86" length="3.7639121724281033" mass="1617.0467686431007" accel="2.3585533886174312" decel="3.564444064925362" emergencyDecel="9.055871832540172" minGap="8.46915216402487" vClass="passenger" emissionClass="HBEFA4/PC_diesel_Euro-4" color="#3498DB" guiShape="passenger/sedan"/>
    <vType id="vtype-vehicle87" length="4.04996061798328" mass="1382.8805339335795" accel="2.1" decel="3.3263181698539803" emergencyDecel="9.131476750831682" minGap="5.68375560758058" vClass="passenger" emissionClass="HBEFA4/PC_petrol_Euro-6ab" color="#3498DB" guiShape="passenger/sedan"/>
    <vType id="vtype-vehicle88" length="6.142554585799228" mass="1764.223949204276" accel="3.0836010855973464" decel="4.549515320496746" emergencyDecel="9.91478714970844" minGap="5.3171860178868195" vClass="passenger" emissionClass="HBEFA4/PC_petrol_Euro-2" color="#3498DB" guiShape="passenger/sedan"/>
    <vType id="vtype-vehicle89" length="6.450647166364936" mass="1475.8991852973402" accel="4.901593513095131" decel="3.6487744246597535" emergencyDecel="9.20323365237001" minGap="8.523691146895231" vClass="passenger" emissionClass="HBEFA4/PC_petrol_Euro-4" color="#3498DB" guiShape="passenger/sedan"/>
    <vType id="vtype-vehicle90" length="5.1614162916600375" mass="1620.8809785125384" accel="2.4490079119246175" decel="3.4713139561343853" emergencyDecel="10.788236485424001" minGap="9.587767169341921" vClass="passenger" emissionClass="HBEFA4/PC_BEV" color="#3498DB" guiShape="passenger/sedan"/>
    <vType id="vtype-vehicle91" length="5.55680322761947" mass="1166.8519917067113" accel="2.5468598311415316" decel="3.458594846939702" emergencyDecel="8.940949291840335" minGap="6.256193922084654" vClass="passenger" emissionClass="HBEFA4/PC_PHEV_petrol_Euro-6d_(El)" color="#3498DB" guiShape="passenger/sedan"/>
    <vType id="vtype-vehicle92" length="3.768454742800409" mass="1521.9473432505604" accel="2.1" decel="2.6464461035002556" emergencyDecel="8.583342237906475" minGap="7.631000416174807" vClass="passenger" emissionClass="HBEFA4/PC_LPG_petrol_Euro-4_(LPG)" color="#3498DB" guiShape="passenger/sedan"/>
    <vType id="vtype-vehicle93" length="3.743571043444788" mass="1860.1293341694973" accel="6.2300918383460555" decel="3.274883393934469" emergencyDecel="8.330463531624938" minGap="9.991275262887594" vClass="passenger" emissionClass="HBEFA4/PC_petrol_PreEuro_3WCat_1987-90" color="#3498DB" guiShape="passenger/sedan"/>
    <vType id="vtype-vehicle94" length="4.992678973180975" mass="1490.1830218180096" accel="4.558827252610591" decel="4.28664134384371" emergencyDecel="8.832266317833223" minGap="8.533296742481468" vClass="passenger" emissionClass="HBEFA4/PC_petrol_Euro-4" color="#3498DB" guiShape="passenger/sedan"/>
    <vType id="vtype-vehicle95" length="6.612590598168676" mass="1487.53194666448" accel="2.8374600389197604" decel="2.8970214646852464" emergencyDecel="9.704998651569879" minGap="8.502424625849514" vClass="passenger" emissionClass="HBEFA4/PC_petrol_Euro-6ab" color="#3498DB" guiShape="passenger/sedan"/>
    <vType id="vtype-vehicle96" length="2.5" mass="1466.4112862185834" accel="4.152915402756266" decel="4.539725748527881" emergencyDecel="9.111815687159499" minGap="4.900015426095553" vClass="passenger" emissionClass="HBEFA4/PC_petrol_Euro-5" color="#3498DB" guiShape="passenger/sedan"/>
    <vType id="vtype-vehicle97" length="3.75024638831033" mass="1271.6222252379096" accel="2.1" decel="4.418552720797859" emergencyDecel="8.768016881993121" minGap="6.534968191849022" vClass="passenger" emissionClass="HBEFA4/PC_petrol_Euro-5" color="#3498DB" guiShape="passenger/sedan"/>
    <vType id="vtype-vehicle98" length="5.59696115011514" mass="1351.475927299502" accel="4.579155265086441" decel="4.04202926715376" emergencyDecel="8.997891154506744" minGap="11.09167787374121" vClass="passenger" emissionClass="HBEFA4/PC_petrol_Euro-3" color="#3498DB" guiShape="passenger/sedan"/>