<?xml version="1.0" ?>
<routes>
    <route id="route1" edges="E0 E1"/>
    <route id="route2" edges="E0 E2"/>
    <route id="route3" edges="-E2 -E0"/>
    <route id="route4" edges="-E1 -E0"/>
    <route id="route5" edges="-E1 E2"/>
    <vType id="vtype-vehicle138" length="3.832840181504509" mass="1425.860265436042" accel="5.971644505294105" decel="2.6497777563946596" emergencyDecel="5.769347470672836" minGap="6.55803243452159" color="#00BFFF" guiShape="passenger/sedan"/>
    <vType id="vtype-vehicle176" length="5.2474262429928915" mass="1552.032610403166" accel="3.616713865234326" decel="2.457474305220719" emergencyDecel="6.690984485408875" minGap="10.01080246105746" color="#00BFFF" guiShape="passenger/sedan"/>
    <vType id="vtype-vehicle194" length="5.20028054416718" mass="2592.543680122304" accel="2.1" decel="3.5486841745352486" emergencyDecel="5.830606790704054" minGap="8.926003254118683" color="#FF4500" guiShape="passenger/hatchback"/>
    <vType id="vtype-vehicle45" length="4.435635597335744" mass="1321.4882738843366" accel="4.675106113134329" decel="3.5853878004739466" emergencyDecel="6.946924679626106" minGap="0.257003242079592" color="#FFFF00" guiShape="passenger/sedan"/>
    <vType id="vtype-vehicle271" length="4.546122005751894" mass="2060.788580186825" accel="2.1" decel="2.713228931122158" emergencyDecel="6.720221459561887" minGap="7.134037113207972" color="#8A2BE2" guiShape="passenger/hatchback"/>
    <vType id="vtype-vehicle92" length="5.463094722249277" mass="1346.6112133007769" accel="2.1" decel="4.435322388976097" emergencyDecel="5.354133252463936" minGap="6.1364172888701916" color="#00BFFF" guiShape="passenger/sedan"/>
    <vType id="vtype-vehicle168" length="2.975139006775427" mass="1757.519549824764" accel="2.1" decel="3.6498221641638726" emergencyDecel="5.990036117927238" minGap="2.181227417666684" color="#00BFFF" guiShape="passenger/sedan"/>
    <vType id="vtype-vehicle187" length="4.834685953210242" mass="1448.0446837923382" accel="3.2288127077993662" decel="2.284003343309406" emergencyDecel="3.4973215344014905" minGap="6.409906021422227" color="#00BFFF" guiShape="passenger/sedan"/>
    <vType id="vtype-vehicle307" length="6.777123040609433" mass="2072.722274212249" accel="3.452718063549704" decel="2.8624555599233665" emergencyDecel="5.120320130526434" minGap="4.844916984438541" color="#DC143C" guiShape="delivery"/>
    <vType id="vtype-vehicle155" length="5.0049549572832674" mass="1696.0319929063444" accel="2.1539877699223453" decel="1.672626463034774" emergencyDecel="4.578964437345645" minGap="5.449154353962591" color="#00BFFF" guiShape="passenger/sedan"/>
    <vType id="vtype-vehicle263" length="4.98110144986484" mass="2413.3040426198863" accel="2.9455108274321065" decel="2.924797879052881" emergencyDecel="5.622883291699008" minGap="8.807835313188408" color="#8A2BE2" guiShape="passenger/hatchback"/>
    <vType id="vtype-vehicle247" length="5.733603912717387" mass="2050.9228073204904" accel="2.1" decel="4.267944735727841" emergencyDecel="6.715628553840455" minGap="6.054069079564732" color="#8A2BE2" guiShape="passenger/hatchback"/>
    <vType id="vtype-vehicle95" length="6.215990465233732" mass="1420.0878079425565" accel="2.1" decel="4.001931801132312" emergencyDecel="6.517291099101682" minGap="6.357896174634581" color="#00BFFF" guiShape="passenger/sedan"/>
    <vType id="vtype-vehicle295" length="3.5048178029823545" mass="2125.9517781898153" accel="5.734932418393409" decel="2.824867399653853" emergencyDecel="6.8346184094332605" minGap="7.935385093928009" color="#DC143C" guiShape="delivery"/>
    <vType id="vtype-vehicle66" length="5.028891219649945" mass="1420.5679399259966" accel="2.1" decel="1.8465585326349434" emergencyDecel="6.747209554195898" minGap="9.07440161356902" color="#FFFF00" guiShape="passenger/sedan"/>
    <vType id="vtype-vehicle215" length="5.542629156568592" mass="2008.948389664199" accel="2.1" decel="2.6526886677060264" emergencyDecel="5.762537906088429" minGap="6.969486315385359" color="#8A2BE2" guiShape="passenger/hatchback"/>
    <vType id="vtype-vehicle100" length="4.919543548928732" mass="1666.8717854885854" accel="6.465973047878079" decel="4.2237082890792195" emergencyDecel="7.163260970518913" minGap="6.905012420423497" color="#00BFFF" guiShape="passenger/sedan"/>
    <vType id="vtype-vehicle243" length="4.277798338954344" mass="2148.6981356254955" accel="5.096575444420813" decel="1.4687388979322487" emergencyDecel="5.164148351314878" minGap="8.021413969404524" color="#8A2BE2" guiShape="passenger/hatchback"/>
    <vType id="vtype-vehicle198" length="4.436218628349808" mass="2184.935937806195" accel="5.80634229018848" decel="4.120604236912089" emergencyDecel="3.878752437640697" minGap="8.506425834632944" color="#FF4500" guiShape="passenger/hatchback"/>
    <vType id="vtype-vehicle316" length="5.657778256838428" mass="2217.9081743278416" accel="3.042152257565436" decel="3.35263431808103" emergencyDecel="5.156667574031491" minGap="8.079656636706336" color="#DC143C" guiShape="delivery"/>
    <vType id="vtype-vehicle113" length="3.696515934379808" mass="1807.8269923351081" accel="6.3706728783758955" decel="2.118514586736309" emergencyDecel="7.045896967593358" minGap="7.923802386080174" color="#00BFFF" guiShape="passenger/sedan"/>
    <vType id="vtype-vehicle212" length="5.859596546457552" mass="2366.353290220674" accel="3.303813421110283" decel="0.35835271900427523" emergencyDecel="5.731581144560749" minGap="5.735477244563914" color="#8A2BE2" guiShape="passenger/hatchback"/>
    <vType id="vtype-vehicle321" length="6.762986506961246" mass="2509.8384789213237" accel="2.1" decel="1.518386136800226" emergencyDecel="7.2798623314969" minGap="4.63524859158303" color="#FFFFFF" guiShape="delivery"/>
    <vType id="vtype-vehicle132" length="3.669152610130923" mass="1547.2163148945765" accel="2.1" decel="2.8904723655987663" emergencyDecel="7.080963031423268" minGap="6.039293496677555" color="#00BFFF" guiShape="passenger/sedan"/>
    <vType id="vtype-vehicle17" length="3.7221239901681944" mass="1092.7954734617992" accel="2.1" decel="3.3397762905397737" emergencyDecel="5.621742566954294" minGap="6.710747531423055" color="#FFFF00" guiShape="passenger/sedan"/>
    <vType id="vtype-vehicle289" length="4.985314321888481" mass="2451.306228717777" accel="2.1" decel="3.0962596754644514" emergencyDecel="6.998139219776721" minGap="5.938488786622335" color="#DC143C" guiShape="delivery"/>
    <vType id="vtype-vehicle262" length="6.337314087822081" mass="1625.1531216441767" accel="2.1" decel="1.7609418376527053" emergencyDecel="6.083324615921873" minGap="5.841617249238651" color="#8A2BE2" guiShape="passenger/hatchback"/>
    <vType id="vtype-vehicle158" length="3.67045589425563" mass="1396.1038395975258" accel="3.965632940831985" decel="1.7873909939038766" emergencyDecel="5.294417952719771" minGap="6.611087900363074" color="#00BFFF" guiShape="passenger/sedan"/>
    <vType id="vtype-vehicle75" length="4.439315442407802" mass="1669.4089069472525" accel="8.06624994188717" decel="4.016122358782036" emergencyDecel="6.398060150949846" minGap="6.511418064991297" color="#00BFFF" guiShape="passenger/sedan"/>
    <vType id="vtype-vehicle0" length="4.8441175766926" mass="1417.3632564002728" accel="2.9677968202707383" decel="3.5220313212089582" emergencyDecel="7.469716845275429" minGap="5.408998300613924" color="#FFFF00" guiShape="passenger/sedan"/>
    <vType id="vtype-vehicle268" length="4.253677399675221" mass="2016.0298660576143" accel="5.508548734189136" decel="3.2748239626095104" emergencyDecel="7.170226556952546" minGap="4.961575017876282" color="#8A2BE2" guiShape="passenger/hatchback"/>
    <vType id="vtype-vehicle232" length="5.579095183638118" mass="1975.6169348891285" accel="3.717716891387281" decel="3.8355623086728423" emergencyDecel="5.619936738350646" minGap="6.522145752386072" color="#8A2BE2" guiShape="passenger/hatchback"/>
    <vType id="vtype-vehicle86" length="2.9635614938427786" mass="1680.1121263937775" accel="2.1" decel="3.9801469657616053" emergencyDecel="6.626784891312931" minGap="3.575337235601388" color="#00BFFF" guiShape="passenger/sedan"/>
    <vType id="vtype-vehicle322" length="7.040952844156085" mass="2548.7996980205253" accel="2.1" decel="2.7521879787855714" emergencyDecel="6.4175026575885115" minGap="7.841027676181975" color="#FFFFFF" guiShape="delivery"/>
    <vType id="vtype-vehicle40" length="4.348143313574798" mass="1581.5001328674803" accel="2.1" decel="3.5345640232558333" emergencyDecel="6.148140044952906" minGap="6.378661144575735" color="#FFFF00" guiShape="passenger/sedan"/>
    <vType id="vtype-vehicle270" length="4.133104633980897" mass="2104.843286016262" accel="2.3623438379330004" decel="3.6519518014482664" emergencyDecel="5.420349609846927" minGap="7.552435188888285" color="#8A2BE2" guiShape="passenger/hatchback"/>
    <vType id="vtype-vehicle257" length="6.884768397819082" mass="2128.8158828615046" accel="2.1" decel="3.225096837236647" emergencyDecel="3.785542951150997" minGap="8.97873279211058" color="#8A2BE2" guiShape="passenger/hatchback"/>
    <vType id="vtype-vehicle233" length="6.563820694287979" mass="2470.7237107779024" accel="5.7726574976704175" decel="3.1278695488496693" emergencyDecel="7.486478055825028" minGap="6.680857407371544" color="#8A2BE2" guiShape="passenger/hatchback"/>
    <vType id="vtype-vehicle189" length="4.9617147736434095" mass="2007.0309507726167" accel="4.273355114670007" decel="3.3490929496227073" emergencyDecel="5.20894353905852" minGap="8.949737130501155" color="#FF4500" guiShape="passenger/hatchback"/>
    <vType id="vtype-vehicle13" length="4.105947639692681" mass="2106.9169768438364" accel="2.539585493840068" decel="1.2716942475155109" emergencyDecel="6.039762162189359" minGap="0.6411810009409038" color="#FFFF00" guiShape="passenger/sedan"/>
    <vType id="vtype-vehicle88" length="4.314098066092395" mass="1244.3801940101466" accel="2.1" decel="4.089889691509354" emergencyDecel="6.6434884222408215" minGap="6.741558835411259" color="#00BFFF" guiShape="passenger/sedan"/>
    <vType id="vtype-vehicle120" length="4.092862620334046" mass="1381.3230982871721" accel="4.659911913065303" decel="3.076396296006633" emergencyDecel="5.66182027345538" minGap="8.090431393304645" color="#00BFFF" guiShape="passenger/sedan"/>
    <vType id="vtype-vehicle129" length="3.9200660226293556" mass="1571.3719107728389" accel="2.1" decel="3.3670978981482023" emergencyDecel="5.998835498502223" minGap="7.402513592267468" color="#00BFFF" guiShape="passenger/sedan"/>
    <vType id="vtype-vehicle124" length="5.23253209963999" mass="1760.2740959710677" accel="3.2095438355808037" decel="1.8436906767414996" emergencyDecel="6.465689697718049" minGap="9.42606841717817" color="#00BFFF" guiShape="passenger/sedan"/>
    <vType id="vtype-vehicle277" length="6.567100546424102" mass="2563.893411091564" accel="4.952754206233822" decel="3.615565843612652" emergencyDecel="6.082719811812627" minGap="6.073408911626793" color="#DC143C" guiShape="delivery"/>
    <vType id="vtype-vehicle73" length="4.584599955951673" mass="1343.0287460192758" accel="4.837495884271564" decel="2.7720650828391933" emergencyDecel="7.515618077065167" minGap="6.443501496531114" color="#00BFFF" guiShape="passenger/sedan"/>
    <vType id="vtype-vehicle26" length="5.5590011741505245" mass="1821.0199792859007" accel="3.604526672445651" decel="0.852972697528942" emergencyDecel="6.02437325014422" minGap="5.372912266368476" color="#FFFF00" guiShape="passenger/sedan"/>
    <vType id="vtype-vehicle235" length="5.816784282065347" mass="2392.5689255502834" accel="6.020954021279227" decel="3.6070276598786455" emergencyDecel="6.9694288714541965" minGap="8.675401692705796" color="#8A2BE2" guiShape="passenger/hatchback"/>
    <vType id="vtype-vehicle173" length="5.059557441410186" mass="1776.3044921017117" accel="3.698971239858423" decel="2.374616726066968" emergencyDecel="5.725577387692477" minGap="4.364499154264756" color="#00BFFF" guiShape="passenger/sedan"/>
    <vType id="vtype-vehicle250" length="5.485217750502133" mass="2296.4750267717905" accel="5.535462682713863" decel="3.254504532012285" emergencyDecel="5.616960190574536" minGap="5.190188279266662" color="#8A2BE2" guiShape="passenger/hatchback"/>
    <vType id="vtype-vehicle211" length="6.476477514188219" mass="1953.5603535937369" accel="2.1" decel="3.340929881924148" emergencyDecel="5.678542718532804" minGap="2.251422575962952" color="#8A2BE2" guiShape="passenger/hatchback"/>
    <vType id="vtype-vehicle172" length="4.373840864428052" mass="1693.7447977053955" accel="2.1" decel="4.689145710722748" emergencyDecel="6.259594344647494" minGap="7.056573609898595" color="#00BFFF" guiShape="passenger/sedan"/>
    <vType id="vtype-vehicle177" length="5.3510857429115966" mass="2184.651287045649" accel="2.1" decel="3.2455046499629825" emergencyDecel="5.734776113348049" minGap="6.839586513896816" color="#00BFFF" guiShape="passenger/sedan"/>
    <vType id="vtype-vehicle261" length="3.7411203981517556" mass="2233.379303065097" accel="4.031786704132282" decel="2.5062582454405646" emergencyDecel="7.52764549251603" minGap="3.3674619759875086" color="#8A2BE2" guiShape="passenger/hatchback"/>
    <vType id="vtype-vehicle205" length="6.098476901620041" mass="2248.003705427058" accel="4.530338647109524" decel="2.8270599738180184" emergencyDecel="5.168939448230735" minGap="8.588529576115404" color="#8A2BE2" guiShape="passenger/hatchback"/>
    <vType id="vtype-vehicle23" length="5.051556910167934" mass="1666.1139650686828" accel="5.795599615346519" decel="0.23221693949189426" emergencyDecel="6.564121278434464" minGap="6.858876970379123" color="#FFFF00" guiShape="passenger/sedan"/>
    <vType id="vtype-vehicle104" length="5.59228460634747" mass="1539.6219028961439" accel="4.529777265443631" decel="3.089095841932426" emergencyDecel="6.1146039549878815" minGap="11.152803904003527" color="#00BFFF" guiShape="passenger/sedan"/>
    <vType id="vtype-vehicle226" length="3.6617801089561954" mass="2196.411816780021" accel="2.1" decel="0.4582813225934461" emergencyDecel="7.259375597339083" minGap="4.008297050421852" color="#8A2BE2" guiShape="passenger/hatchback"/>
    <vType id="vtype-vehicle19" length="5.9503120636875" mass="1590.1594433702508" accel="6.260481563425506" decel="2.5099692263652904" emergencyDecel="6.71653665544922" minGap="6.309162832096357" color="#FFFF00" guiShape="passenger/sedan"/>
    <vType id="vtype-vehicle300" length="5.436416188532516" mass="1839.9411584783184" accel="4.251454808235229" decel="3.641035220966401" emergencyDecel="6.146833917950544" minGap="7.376532873892302" color="#DC143C" guiShape="delivery"/>
    <vType id="vtype-vehicle96" length="5.559825540657993" mass="1839.743047294017" accel="2.1" decel="3.7995955263707732" emergencyDecel="7.404797131589245" minGap="5.746924644704112" color="#00BFFF" guiShape="passenger/sedan"/>
    <vType id="vtype-vehicle293" length="6.529585976217364" mass="1961.2925718408198" accel="2.677148173400857" decel="2.6763071399956417" emergencyDecel="4.224101301356727" minGap="5.920578937420292" color="#DC143C" guiShape="delivery"/>
    <vType id="vtype-vehicle28" length="4.130683203716328" mass="1496.696100405451" accel="7.919059025731293" decel="3.0672183659826144" emergencyDecel="6.919347913158765" minGap="7.923686254107453" color="#FFFF00" guiShape="passenger/sedan"/>
    <vType id="vtype-vehicle319" length="5.932510852607573" mass="1992.9822068215246" accel="2.1" decel="3.678939797369818" emergencyDecel="6.723683930010281" minGap="4.820960004526688" color="#DC143C" guiShape="delivery"/>
    <vType id="vtype-vehicle266" length="5.6654213789248375" mass="1954.3749490935775" accel="3.1799171495878205" decel="3.7652329862607243" emergencyDecel="6.03371194238627" minGap="7.06924041855607" color="#8A2BE2" guiShape="passenger/hatchback"/>
    <vType id="vtype-vehicle34" length="4.061069793363543" mass="1217.917457756806" accel="2.1" decel="3.4069162289024026" emergencyDecel="4.733333741665936" minGap="4.914696608896454" color="#FFFF00" guiShape="passenger/sedan"/>
    <vType id="vtype-vehicle33" length="3.5490793387220507" mass="1800.4402349994475" accel="2.168149302737867" decel="3.920653238245379" emergencyDecel="6.958547351328942" minGap="5.491294478664793" color="#FFFF00" guiShape="passenger/sedan"/>
    <vType id="vtype-vehicle130" length="4.106716726763014" mass="1594.533577944016" accel="5.642858603788282" decel="1.6497578867007148" emergencyDecel="5.375487353383613" minGap="10.965059743221147" color="#00BFFF" guiShape="passenger/sedan"/>
    <vType id="vtype-vehicle305" length="3.2380656714382643" mass="2195.873677200623" accel="3.0644155377689186" decel="1.898887976614831" emergencyDecel="5.063934982490022" minGap="8.090274787303088" color="#DC143C" guiShape="delivery"/>
    <vType id="vtype-vehicle97" length="4.307890469802006" mass="1345.8082386115743" accel="4.155192753428856" decel="3.711982432975935" emergencyDecel="6.901743493736678" minGap="6.247701110752006" color="#00BFFF" guiShape="passenger/sedan"/>
    <vType id="vtype-vehicle231" length="5.149178923552863" mass="2086.979323278804" accel="5.789152552759912" decel="2.86765609248742" emergencyDecel="7.704891416753767" minGap="8.391322468340103" color="#8A2BE2" guiShape="passenger/hatchback"/>
    <vType id="vtype-vehicle84" length="4.006684947563691" mass="1594.929711408036" accel="2.4435984046139607" decel="3.0427107787694827" emergencyDecel="6.454436184925407" minGap="7.209487265091558" color="#00BFFF" guiShape="passenger/sedan"/>
    <vType id="vtype-vehicle118" length="5.217723295014789" mass="1173.737389815361" accel="5.998692989679734" decel="4.379725345427318" emergencyDecel="6.182011432664594" minGap="10.915065644099439" color="#00BFFF" guiShape="passenger/sedan"/>
    <vType id="vtype-vehicle41" length="3.6310904086095355" mass="1479.189630899852" accel="5.507956541742725" decel="3.148143078438579" emergencyDecel="6.673349100478579" minGap="7.102761935920433" color="#FFFF00" guiShape="passenger/sedan"/>
    <vType id="vtype-vehicle77" length="3.722817857829148" mass="1740.6360540237733" accel="6.312484238589173" decel="2.682712678349051" emergencyDecel="6.163698600252279" minGap="9.947277638069275" color="#00BFFF" guiShape="passenger/sedan"/>
    <vType id="vtype-vehicle272" length="6.90873049604708" mass="1962.0144733186985" accel="5.165426031168442" decel="1.765969461266157" emergencyDecel="3.6804313700190745" minGap="7.227497472466435" color="#8A2BE2" guiShape="passenger/hatchback"/>
    <vType id="vtype-vehicle151" length="4.279463830312277" mass="1478.313529920117" accel="5.443905978595014" decel="4.012038855379034" emergencyDecel="5.758181739809648" minGap="5.9638628366301525" color="#00BFFF" guiShape="passenger/sedan"/>
    <vType id="vtype-vehicle312" length="6.75355228360199" mass="2376.5675655387927" accel="3.601773398758469" decel="3.865174323968377" emergencyDecel="3.1430353167293865" minGap="6.76037137652945" color="#DC143C" guiShape="delivery"/>
    <vType id="vtype-vehicle200" length="3.4836639762543093" mass="2099.413427229102" accel="3.3063569085013658" decel="3.55930372634111" emergencyDecel="6.155632634535981" minGap="4.071157492802467" color="#8A2BE2" guiShape="passenger/hatchback"/>
    <vType id="vtype-vehicle57" length="3.9533475251689074" mass="1824.3553342807681" accel="2.680911185613466" decel="3.6509906046465126" emergencyDecel="8.207440133072136" minGap="3.1797301106884457" color="#FFFF00" guiShape="passenger/sedan"/>
    <vType id="vtype-vehicle127" length="4.717737541426742" mass="1576.4194586618655" accel="2.1" decel="3.0291957453343015" emergencyDecel="6.642803240794599" minGap="5.301039574986409" color="#00BFFF" guiShape="passenger/sedan"/>
    <vType id="vtype-vehicle156" length="5.287886811357245" mass="1860.731663960283" accel="5.330555899314638" decel="2.9453171804064606" emergencyDecel="5.559122893654643" minGap="10.487451030207698" color="#00BFFF" guiShape="passenger/sedan"/>
    <vType id="vtype-vehicle117" length="4.671095419049891" mass="1566.1948705283746" accel="5.639640799376299" decel="3.2770928310316565" emergencyDecel="5.322041274425127" minGap="6.975026871335447" color="#00BFFF" guiShape="passenger/sedan"/>
    <vType id="vtype-vehicle299" length="4.622575377463472" mass="1798.0911976227849" accel="5.736177906945798" decel="2.733269632301182" emergencyDecel="6.912321340144064" minGap="7.669859054905266" color="#DC143C" guiShape="delivery"/>
    <vType id="vtype-vehicle20" length="5.968236358299404" mass="1632.53496053982" accel="2.1" decel="1.7113830427660273" emergencyDecel="4.687669388315937" minGap="6.185049390624981" color="#FFFF00" guiShape="passenger/sedan"/>
    <vType id="vtype-vehicle199" length="6.548839422986202" mass="2170.4950469253354" accel="4.67579846381712" decel="2.382975804183255" emergencyDecel="6.3678871794662655" minGap="9.168143348977829" color="#FF4500" guiShape="passenger/hatchback"/>
    <vType id="vtype-vehicle37" length="5.482938706864602" mass="1402.61598575789" accel="2.1" decel="1.2144533492564533" emergencyDecel="7.327723931414402" minGap="8.283999933808918" color="#FFFF00" guiShape="passenger/sedan"/>
    <vType id="vtype-vehicle254" length="3.870367579317234" mass="1918.6318076261682" accel="5.863113639299962" decel="4.165091609875193" emergencyDecel="5.028096981990193" minGap="9.024444139133156" color="#8A2BE2" guiShape="passenger/hatchback"/>
    <vType id="vtype-vehicle244" length="3.4240423724304936" mass="2207.783897442861" accel="7.180460923544953" decel="2.6133332087473025" emergencyDecel="5.9537423364997935" minGap="8.60587789780176" color="#8A2BE2" guiShape="passenger/hatchback"/>
    <vType id="vtype-vehicle85" length="4.408122456004447" mass="1571.478759116426" accel="4.599369501833313" decel="2.290778654582283" emergencyDecel="6.028106713213688" minGap="8.740267500520837" color="#00BFFF" guiShape="passenger/sedan"/>
    <vType id="vtype-vehicle59" length="4.007795553448062" mass="1773.3426650860815" accel="2.1" decel="2.5440847083589957" emergencyDecel="4.587853689324085" minGap="8.677029968518816" color="#FFFF00" guiShape="passenger/sedan"/>
    <vType id="vtype-vehicle184" length="5.165896816545357" mass="1836.0901483302696" accel="2.1" decel="2.107338125442163" emergencyDecel="8.4925171607169" minGap="8.827515243537201" color="#00BFFF" guiShape="passenger/sedan"/>
    <vType id="vtype-vehicle107" length="3.736519707175936" mass="1587.8891141425395" accel="2.1" decel="6.410725591620551" emergencyDecel="6.567705006780222" minGap="7.957722693919337" color="#00BFFF" guiShape="passenger/sedan"/>
    <vType id="vtype-vehicle38" length="3.236916693496819" mass="1453.9468034552317" accel="2.1" decel="3.0416243779565746" emergencyDecel="5.1477384068075835" minGap="7.287530333688913" color="#FFFF00" guiShape="passenger/sedan"/>
    <vType id="vtype-vehicle52" length="3.9967777863293232" mass="1430.9551058598277" accel="2.1" decel="3.213867155379561" emergencyDecel="6.025238539514643" minGap="3.8413646775504" color="#FFFF00" guiShape="passenger/sedan"/>
    <vType id="vtype-vehicle89" length="5.675040737162838" mass="1524.4995185321075" accel="3.2311472727332706" decel="2.653271170611829" emergencyDecel="7.179256327223114" minGap="9.977436486865148" color="#00BFFF" guiShape="passenger/sedan"/>
    <vType id="vtype-vehicle83" length="5.540762206747621" mass="1264.4259225873977" accel="3.9607755310816" decel="3.2662417189460182" emergencyDecel="6.435557552467635" minGap="6.444802531598933" color="#00BFFF" guiShape="passenger/sedan"/>
    <vType id="vtype-vehicle27" length="3.9050904810060323" mass="1900.516866571496" accel="7.851722692577349" decel="2.623676261662791" emergencyDecel="6.105215974121689" minGap="8.914972891220458" color="#FFFF00" guiShape="passenger/sedan"/>
    <vType id="vtype-vehicle14" length="3.8355148368719503" mass="1858.2910177881458" accel="4.385799495036862" decel="4.041504123409004" emergencyDecel="7.270537551478494" minGap="5.756498223192029" color="#FFFF00" guiShape="passenger/sedan"/>
    <vType id="vtype-vehicle150" length="4.619309999910926" mass="1797.8155953779087" accel="3.14696939869422" decel="2.33336604939247" emergencyDecel="6.291687044669554" minGap="5.544494848937891" color="#00BFFF" guiShape="passenger/sedan"/>
    <vType id="vtype-vehicle219" length="3.5730305183345914" mass="2147.8250871439345" accel="2.1" decel="3.6808933907787433" emergencyDecel="7.345439518945909" minGap="11.132912278110425" color="#8A2BE2" guiShape="passenger/hatchback"/>
    <vType id="vtype-vehicle47" length="4.536788326736527" mass="1753.9239781181682" accel="3.258146024837998" decel="3.6092235055483646" emergencyDecel="5.614011017603642" minGap="8.46764442221582" color="#FFFF00" guiShape="passenger/sedan"/>
    <vType id="vtype-vehicle248" length="5.075988759419799" mass="2190.689233279718" accel="3.003552379125587" decel="3.873664860140436" emergencyDecel="7.910484124610735" minGap="7.667609433696502" color="#8A2BE2" guiShape="passenger/hatchback"/>
    <vType id="vtype-vehicle301" length="5.4328816201075565" mass="2341.607196667542" accel="2.4352554783498865" decel="2.772870545279906" emergencyDecel="6.913121470246646" minGap="7.0574443548425485" color="#DC143C" guiShape="delivery"/>
    <vType id="vtype-vehicle78" length="3.1529711215865333" mass="1370.0814113438053" accel="4.298304948157309" decel="1.4400033176341713" emergencyDecel="5.844573201896286" minGap="5.158554996420435" color="#00BFFF" guiShape="passenger/sedan"/>
    <vType id="vtype-vehicle256" length="2.74474951174025" mass="2170.1893771858204" accel="4.1160037042626545" decel="2.7930511777710745" emergencyDecel="5.184135034856982" minGap="7.713583002018186" color="#8A2BE2" guiShape="passenger/hatchback"/>
    <vType id="vtype-vehicle24" length="7.305537898980176" mass="1442.1625713621343" accel="2.1" decel="3.5871982979843553" emergencyDecel="4.9213676722136235" minGap="7.555404681155164" color="#FFFF00" guiShape="passenger/sedan"/>
    <vType id="vtype-vehicle167" length="6.190185258862893" mass="1744.4392956876923" accel="5.628621172671616" decel="3.2450152019555105" emergencyDecel="4.94757882614093" minGap="6.544327908192837" color="#00BFFF" guiShape="passenger/sedan"/>
    <vType id="vtype-vehicle285" length="2.3133458937204345" mass="2222.556835037554" accel="3.406060691868869" decel="2.137481622394544" emergencyDecel="6.135575337701176" minGap="7.8825876657926335" color="#DC143C" guiShape="delivery"/>
    <vType id="vtype-vehicle290" length="5.602017328595479" mass="2058.6434857997947" accel="2.9417067101411347" decel="3.500777741580497" emergencyDecel="6.006633130629687" minGap="5.149325768752254" color="#DC143C" guiShape="delivery"/>
    <vType id="vtype-vehicle30" length="4.742099735073239" mass="1734.3533261452073" accel="3.9988302629310826" decel="2.196625796748254" emergencyDecel="7.930492272689966" minGap="5.748050523874261" color="#FFFF00" guiShape="passenger/sedan"/>
    <vType id="vtype-vehicle60" length="4.494450535198459" mass="1411.9122584018432" accel="2.1" decel="3.237640935256012" emergencyDecel="6.168336526135229" minGap="5.98874159504793" color="#FFFF00" guiShape="passenger/sedan"/>
    <vType id="vtype-vehicle11" length="3.9511886135109084" mass="1418.4981585218688" accel="2.1" decel="4.334774632353476" emergencyDecel="5.4632480074507885" minGap="5.343760911926024" color="#FFFF00" guiShape="passenger/sedan"/>
    <vType id="vtype-vehicle137" length="5.003734193294265" mass="1751.5831593701596" accel="2.1035412939270883" decel="2.278480887892597" emergencyDecel="3.7140001775104934" minGap="3.126109220275642" color="#00BFFF" guiShape="passenger/sedan"/>
    <vType id="vtype-vehicle15" length="4.704846902513791" mass="1628.4529873022252" accel="2.1" decel="3.2504954136361546" emergencyDecel="7.666972534159665" minGap="9.338300291811338" color="#FFFF00" guiShape="passenger/sedan"/>
    <vType id="vtype-vehicle108" length="4.915230473352892" mass="1624.156765296334" accel="2.1" decel="2.6339882358248947" emergencyDecel="6.257877825673531" minGap="5.5277011535315514" color="#00BFFF" guiShape="passenger/sedan"/>
    <vType id="vtype-vehicle208" length="5.547521558650057" mass="1930.4639081751911" accel="5.793980437440405" decel="1.561815101376131" emergencyDecel="7.701684974893272" minGap="7.116794521066028" color="#8A2BE2" guiShape="passenger/hatchback"/>
    <vType id="vtype-vehicle236" length="5.938591333205848" mass="2088.202656802261" accel="2.1" decel="1.5903127958710723" emergencyDecel="5.8792431553946685" minGap="7.7660101133738415" color="#8A2BE2" guiShape="passenger/hatchback"/>
    <vType id="vtype-vehicle148" length="4.923419469733322" mass="1607.4880935847143" accel="5.653372807693796" decel="4.126481509587806" emergencyDecel="5.895997284039271" minGap="8.871871256771552" color="#00BFFF" guiShape="passenger/sedan"/>
    <vType id="vtype-vehicle10" length="5.917227243468444" mass="1821.0475796355104" accel="2.1" decel="3.432461137876022" emergencyDecel="4.989007155173308" minGap="5.286017753033708" color="#FFFF00" guiShape="passenger/sedan"/>
    <vType id="vtype-vehicle93" length="5.149843562718063" mass="1787.4662863050366" accel="4.994345222345004" decel="1.52828433571514" emergencyDecel="4.042478097374582" minGap="8.569151235634626" color="#00BFFF" guiShape="passenger/sedan"/>
    <vType id="vtype-vehicle68" length="3.927931706025147" mass="1682.3366386591833" accel="2.165326611721771" decel="2.831871211955428" emergencyDecel="4.456957501795672" minGap="7.777744635099738" color="#00BFFF" guiShape="passenger/sedan"/>
    <vType id="vtype-vehicle234" length="6.759235331355037" mass="2206.9194504397" accel="2.1" decel="2.444379020694573" emergencyDecel="7.205368892796148" minGap="9.037411379792033" color="#8A2BE2" guiShape="passenger/hatchback"/>