<?xml version="1.0" encoding="UTF-8"?>

<!-- generated on 2024-07-22 11:27:34 by Eclipse SUMO netedit Version 1.20.0
<configuration xmlns:xsi="http://www.w3.org/2001/XMLSchema-instance" xsi:noNamespaceSchemaLocation="http://sumo.dlr.de/xsd/neteditConfiguration.xsd">

    <input>
        <sumo-net-file value="c:\Users\Denny\OneDrive\Università\Tirocinio\Progetti SUMO\Simulazioni ed esperimenti SUMO\sumo_xml_files\masa_50pc\masa_50pc.net.xml"/>
    </input>

    <output>
        <output-file value="c:\Users\Denny\OneDrive\Università\Tirocinio\Progetti SUMO\Simulazioni ed esperimenti SUMO\sumo_xml_files\masa_50pc\masa_50pc.net.xml"/>
        <output.street-names value="true"/>
    </output>

    <processing>
        <geometry.min-radius.fix.railways value="false"/>
        <geometry.max-grade.fix value="false"/>
        <offset.disable-normalization value="true"/>
        <lefthand value="0"/>
    </processing>

    <junctions>
        <no-turnarounds value="true"/>
        <junctions.corner-detail value="5"/>
        <junctions.limit-turn-speed value="5.50"/>
        <rectangular-lane-cut value="0"/>
    </junctions>

    <pedestrian>
        <walkingareas value="0"/>
    </pedestrian>

</configuration>
-->

<net version="1.20" junctionCornerDetail="5" limitTurnSpeed="5.50" xmlns:xsi="http://www.w3.org/2001/XMLSchema-instance" xsi:noNamespaceSchemaLocation="http://sumo.dlr.de/xsd/net_file.xsd">

    <location netOffset="-652603.62,-4946026.27" convBoundary="0.00,-35.72,1105.36,1085.18" origBoundary="10.924716,44.651321,10.938346,44.659682" projParameter="+proj=utm +zone=32 +ellps=WGS84 +datum=WGS84 +units=m +no_defs"/>

    <type id="highway.cycleway" priority="1" numLanes="1" speed="5.56" allow="bicycle" oneway="0" width="2.00"/>
    <type id="highway.footway" priority="1" numLanes="1" speed="2.78" allow="pedestrian" oneway="1" width="2.00"/>
    <type id="highway.path" priority="1" numLanes="1" speed="5.56" allow="pedestrian bicycle" oneway="0" width="2.00"/>
    <type id="highway.pedestrian" priority="1" numLanes="1" speed="2.78" allow="pedestrian" oneway="1" width="2.00"/>
    <type id="highway.residential" priority="3" numLanes="1" speed="13.89" disallow="tram rail_urban rail rail_electric rail_fast ship container cable_car subway aircraft wheelchair scooter drone" oneway="0"/>
    <type id="highway.secondary" priority="11" numLanes="1" speed="27.78" disallow="tram rail_urban rail rail_electric rail_fast ship container cable_car subway aircraft wheelchair scooter drone" oneway="0"/>
    <type id="highway.service" priority="1" numLanes="1" speed="5.56" allow="pedestrian delivery bicycle" oneway="0"/>
    <type id="highway.steps" priority="1" numLanes="1" speed="1.39" allow="pedestrian" oneway="1" width="2.00"/>
    <type id="highway.tertiary" priority="10" numLanes="1" speed="22.22" disallow="tram rail_urban rail rail_electric rail_fast ship container cable_car subway aircraft wheelchair scooter drone" oneway="0"/>
    <type id="highway.tertiary_link" priority="5" numLanes="1" speed="22.22" disallow="tram rail_urban rail rail_electric rail_fast ship container cable_car subway aircraft wheelchair scooter drone" oneway="0"/>
    <type id="highway.unclassified" priority="4" numLanes="1" speed="13.89" disallow="tram rail_urban rail rail_electric rail_fast ship container cable_car subway aircraft wheelchair scooter drone" oneway="0"/>
    <type id="railway.rail" priority="20" numLanes="1" speed="44.44" allow="rail" oneway="1"/>

    <edge id=":10730962245_0" function="internal">
        <lane id=":10730962245_0_0" index="0" allow="pedestrian bicycle" speed="2.89" length="2.92" width="2.00" shape="1082.57,389.76 1083.46,389.92 1083.89,390.28 1083.86,390.84 1083.37,391.60"/>
    </edge>
    <edge id=":1076629793_0" function="internal">
        <lane id=":1076629793_0_0" index="0" disallow="tram rail_urban rail rail_electric rail_fast ship container cable_car subway aircraft wheelchair scooter drone" speed="6.98" length="5.30" shape="777.48,435.76 778.49,436.30 779.92,437.01 781.35,437.54 782.38,437.59"/>
    </edge>
    <edge id=":1076629793_1" function="internal">
        <lane id=":1076629793_1_0" index="0" disallow="tram rail_urban rail rail_electric rail_fast ship container cable_car subway aircraft wheelchair scooter drone" speed="13.89" length="5.54" shape="777.91,440.76 779.05,439.59 779.92,438.86 780.89,438.29 782.38,437.59"/>
    </edge>
    <edge id=":1076629809_0" function="internal">
        <lane id=":1076629809_0_0" index="0" disallow="tram rail_urban rail rail_electric rail_fast ship container cable_car subway aircraft wheelchair scooter drone" speed="11.93" length="5.83" width="9.00" shape="118.03,186.00 122.42,189.84"/>
    </edge>
    <edge id=":1076629809_1" function="internal">
        <lane id=":1076629809_1_0" index="0" disallow="tram rail_urban rail rail_electric rail_fast ship container cable_car subway aircraft wheelchair scooter drone" speed="9.19" length="4.40" width="9.00" shape="119.53,193.15 122.42,189.84"/>
    </edge>
    <edge id=":1076629811_0" function="internal">
        <lane id=":1076629811_0_0" index="0" disallow="tram rail_urban rail rail_electric rail_fast ship container cable_car subway aircraft wheelchair scooter drone" speed="10.48" length="9.77" shape="137.07,191.97 138.77,191.99 141.80,191.45 144.87,190.77 146.67,190.35"/>
        <lane id=":1076629811_0_1" index="1" disallow="tram rail_urban rail rail_electric rail_fast ship container cable_car subway aircraft wheelchair scooter drone" speed="10.86" length="10.60" shape="137.07,191.97 139.13,193.10 141.52,193.72 144.24,193.86 147.27,193.49"/>
    </edge>
    <edge id=":1076629811_2" function="internal">
        <lane id=":1076629811_2_0" index="0" disallow="tram rail_urban rail rail_electric rail_fast ship container cable_car subway aircraft wheelchair scooter drone" speed="10.68" length="7.57" width="9.00" shape="137.07,191.97 138.92,193.25 140.18,194.24 141.07,195.49 141.81,197.54"/>
    </edge>
    <edge id=":10979137141_0" function="internal">
        <lane id=":10979137141_0_0" index="0" allow="pedestrian bicycle" speed="5.56" length="5.00" width="2.00" shape="523.98,842.41 520.60,838.73"/>
    </edge>
    <edge id=":10979137141_1" function="internal">
        <lane id=":10979137141_1_0" index="0" allow="pedestrian bicycle" speed="2.89" length="2.39" width="2.00" shape="523.98,842.41 523.84,841.52 524.04,841.00 524.58,840.85 524.94,840.94"/>
    </edge>
    <edge id=":10979137141_4" function="internal">
        <lane id=":10979137141_4_0" index="0" allow="pedestrian bicycle" speed="2.89" length="0.53" width="2.00" shape="524.94,840.94 525.45,841.06"/>
    </edge>
    <edge id=":10979137141_2" function="internal">
        <lane id=":10979137141_2_0" index="0" allow="pedestrian bicycle" speed="5.56" length="5.00" width="2.00" shape="522.07,837.37 525.45,841.06"/>
    </edge>
    <edge id=":10979137141_3" function="internal">
        <lane id=":10979137141_3_0" index="0" allow="pedestrian bicycle" speed="2.89" length="2.39" width="2.00" shape="522.07,837.37 522.21,838.27 522.01,838.79 521.48,838.94 521.12,838.85"/>
    </edge>
    <edge id=":10979137141_5" function="internal">
        <lane id=":10979137141_5_0" index="0" allow="pedestrian bicycle" speed="2.89" length="0.53" width="2.00" shape="521.12,838.85 520.60,838.73"/>
    </edge>
    <edge id=":10979137144_0" function="internal">
        <lane id=":10979137144_0_0" index="0" disallow="tram rail_urban rail rail_electric rail_fast ship container cable_car subway aircraft wheelchair scooter drone" speed="13.89" length="5.05" shape="508.06,844.38 511.66,847.91"/>
    </edge>
    <edge id=":11067360213_0" function="internal">
        <lane id=":11067360213_0_0" index="0" disallow="tram rail_urban rail rail_electric rail_fast ship container cable_car subway aircraft wheelchair scooter drone" speed="13.89" length="6.99" shape="698.90,551.55 697.57,553.04 697.07,554.36 696.78,555.83 696.09,557.80"/>
    </edge>
    <edge id=":11067360213_1" function="internal">
        <lane id=":11067360213_1_0" index="0" disallow="tram rail_urban rail rail_electric rail_fast ship container cable_car subway aircraft wheelchair scooter drone" speed="13.89" length="9.10" shape="688.46,552.49 691.04,551.66 692.91,551.28 694.65,550.66 696.79,549.14"/>
    </edge>
    <edge id=":11067360213_2" function="internal">
        <lane id=":11067360213_2_0" index="0" disallow="tram rail_urban rail rail_electric rail_fast ship container cable_car subway aircraft wheelchair scooter drone" speed="6.63" length="15.35" shape="688.46,552.49 693.63,550.89 696.63,551.24 697.45,553.54 696.09,557.80"/>
    </edge>
    <edge id=":11067360216_0" function="internal">
        <lane id=":11067360216_0_0" index="0" disallow="tram rail_urban rail rail_electric rail_fast ship container cable_car subway aircraft wheelchair scooter drone" speed="6.22" length="6.18" shape="689.50,562.47 688.50,562.19 687.25,562.45 685.76,563.23 684.02,564.55"/>
    </edge>
    <edge id=":11067360216_1" function="internal">
        <lane id=":11067360216_1_0" index="0" disallow="tram rail_urban rail rail_electric rail_fast ship container cable_car subway aircraft wheelchair scooter drone" speed="6.85" length="9.86" shape="689.50,562.47 687.15,560.64 685.85,558.67 685.60,556.55 686.39,554.30"/>
    </edge>
    <edge id=":11067360216_2" function="internal">
        <lane id=":11067360216_2_0" index="0" disallow="tram rail_urban rail rail_electric rail_fast ship container cable_car subway aircraft wheelchair scooter drone" speed="13.89" length="9.12" shape="681.94,562.12 683.77,560.21 684.62,558.58 685.24,556.76 686.39,554.30"/>
    </edge>
    <edge id=":11073152184_0" function="internal">
        <lane id=":11073152184_0_0" index="0" disallow="tram rail_urban rail rail_electric rail_fast ship container cable_car subway aircraft wheelchair scooter drone" speed="6.47" length="9.42" shape="781.65,464.17 779.07,462.94 776.87,462.75 775.05,463.57 773.61,465.43"/>
    </edge>
    <edge id=":11073152184_1" function="internal">
        <lane id=":11073152184_1_0" index="0" disallow="tram rail_urban rail rail_electric rail_fast ship container cable_car subway aircraft wheelchair scooter drone" speed="11.53" length="15.15" shape="781.65,464.17 778.53,461.75 776.19,458.88 774.63,455.57 773.84,451.82"/>
    </edge>
    <edge id=":11073152184_2" function="internal">
        <lane id=":11073152184_2_0" index="0" disallow="tram rail_urban rail rail_electric rail_fast ship container cable_car subway aircraft wheelchair scooter drone" speed="13.89" length="12.73" shape="770.78,463.94 772.31,460.88 773.37,458.09 773.90,455.19 773.84,451.82"/>
    </edge>
    <edge id=":11073152193_0" function="internal">
        <lane id=":11073152193_0_0" index="0" disallow="tram rail_urban rail rail_electric rail_fast ship container cable_car subway aircraft wheelchair scooter drone" speed="6.43" length="7.46" shape="468.75,746.96 467.90,748.07 467.67,749.59 468.04,751.53 469.03,753.89"/>
    </edge>
    <edge id=":11073152193_1" function="internal">
        <lane id=":11073152193_1_0" index="0" disallow="tram rail_urban rail rail_electric rail_fast ship container cable_car subway aircraft wheelchair scooter drone" speed="7.90" length="8.27" shape="458.88,744.57 461.28,745.33 463.40,745.56 465.23,745.27 466.78,744.44"/>
    </edge>
    <edge id=":11073152193_2" function="internal">
        <lane id=":11073152193_2_0" index="0" disallow="tram rail_urban rail rail_electric rail_fast ship container cable_car subway aircraft wheelchair scooter drone" speed="13.14" length="14.09" shape="458.88,744.57 462.10,746.18 464.85,748.25 467.15,750.81 469.03,753.89"/>
    </edge>
    <edge id=":11073173943_0" function="internal">
        <lane id=":11073173943_0_0" index="0" disallow="tram rail_urban rail rail_electric rail_fast ship container cable_car subway aircraft wheelchair scooter drone" speed="6.46" length="6.84" shape="441.39,779.73 439.35,778.62 437.61,778.07 436.18,778.07 435.05,778.63"/>
    </edge>
    <edge id=":11073173943_1" function="internal">
        <lane id=":11073173943_1_0" index="0" disallow="tram rail_urban rail rail_electric rail_fast ship container cable_car subway aircraft wheelchair scooter drone" speed="13.89" length="13.32" shape="441.39,779.73 438.56,777.69 436.31,775.46 434.50,772.86 432.97,769.73"/>
    </edge>
    <edge id=":11073173943_2" function="internal">
        <lane id=":11073173943_2_0" index="0" disallow="tram rail_urban rail rail_electric rail_fast ship container cable_car subway aircraft wheelchair scooter drone" speed="6.51" length="6.87" shape="432.97,776.20 433.71,775.16 433.96,773.73 433.71,771.92 432.97,769.73"/>
    </edge>
    <edge id=":11073173956_0" function="internal">
        <lane id=":11073173956_0_0" index="0" allow="pedestrian delivery bicycle" speed="3.65" length="4.67" shape="605.80,912.33 606.02,913.76 605.70,914.59 604.83,914.84 603.44,914.49"/>
    </edge>
    <edge id=":11073174343_0" function="internal">
        <lane id=":11073174343_0_0" index="0" allow="rail" speed="8.33" length="31.55" shape="362.21,465.30 368.52,465.84 377.94,466.58 387.35,467.23 393.68,467.49"/>
    </edge>
    <edge id=":11073174343_1" function="internal">
        <lane id=":11073174343_1_0" index="0" allow="rail" speed="8.33" length="31.37" shape="362.33,468.60 393.68,467.49"/>
    </edge>
    <edge id=":11073174358_0" function="internal">
        <lane id=":11073174358_0_0" index="0" allow="rail" speed="44.44" length="27.62" shape="165.88,453.24 193.33,450.16"/>
    </edge>
    <edge id=":11073174358_1" function="internal">
        <lane id=":11073174358_1_0" index="0" allow="rail" speed="44.44" length="27.57" shape="165.88,453.24 193.44,453.54"/>
    </edge>
    <edge id=":11073174368_0" function="internal">
        <lane id=":11073174368_0_0" index="0" allow="rail" speed="44.44" length="27.14" shape="210.14,448.36 237.06,444.83"/>
    </edge>
    <edge id=":11073174368_1" function="internal">
        <lane id=":11073174368_1_0" index="0" allow="rail" speed="44.44" length="27.15" shape="210.14,448.36 215.78,448.13 223.71,448.12 231.63,448.20 237.29,448.26"/>
    </edge>
    <edge id=":11073174385_0" function="internal">
        <lane id=":11073174385_0_0" index="0" allow="rail" speed="44.44" length="31.00" shape="77.41,455.87 108.16,451.92"/>
    </edge>
    <edge id=":11073174385_1" function="internal">
        <lane id=":11073174385_1_0" index="0" allow="rail" speed="44.44" length="30.96" shape="77.41,455.87 108.36,455.25"/>
    </edge>
    <edge id=":11073174411_0" function="internal">
        <lane id=":11073174411_0_0" index="0" allow="rail" speed="44.44" length="3.02" shape="47.14,465.51 44.12,465.59"/>
    </edge>
    <edge id=":11073174416_0" function="internal">
        <lane id=":11073174416_0_0" index="0" allow="rail" speed="44.44" length="2.70" shape="95.99,467.33 93.29,467.22"/>
    </edge>
    <edge id=":11073174419_0" function="internal">
        <lane id=":11073174419_0_0" index="0" allow="rail" speed="44.44" length="2.69" shape="127.16,469.09 124.47,468.93"/>
    </edge>
    <edge id=":11073174425_0" function="internal">
        <lane id=":11073174425_0_0" index="0" allow="rail" speed="44.44" length="30.38" shape="325.72,478.55 295.60,474.61"/>
    </edge>
    <edge id=":11073174425_1" function="internal">
        <lane id=":11073174425_1_0" index="0" allow="rail" speed="44.44" length="30.31" shape="325.90,475.25 295.60,474.61"/>
    </edge>
    <edge id=":11073174452_0" function="internal">
        <lane id=":11073174452_0_0" index="0" allow="rail" speed="8.33" length="24.34" shape="282.11,470.14 306.42,471.30"/>
    </edge>
    <edge id=":11073174452_1" function="internal">
        <lane id=":11073174452_1_0" index="0" allow="rail" speed="8.33" length="24.45" shape="282.06,473.51 306.42,471.30"/>
    </edge>
    <edge id=":11073174478_0" function="internal">
        <lane id=":11073174478_0_0" index="0" allow="pedestrian delivery bicycle" speed="5.06" length="5.02" shape="304.52,692.85 303.21,692.47 302.08,692.60 301.15,693.25 300.40,694.41"/>
    </edge>
    <edge id=":11073174478_1" function="internal">
        <lane id=":11073174478_1_0" index="0" disallow="tram rail_urban rail rail_electric rail_fast ship container cable_car subway aircraft wheelchair scooter drone" speed="13.89" length="9.40" shape="304.52,692.85 295.95,688.98"/>
    </edge>
    <edge id=":11073174478_2" function="internal">
        <lane id=":11073174478_2_0" index="0" disallow="tram rail_urban rail rail_electric rail_fast ship container cable_car subway aircraft wheelchair scooter drone" speed="13.89" length="9.40" shape="297.27,686.06 305.84,689.93"/>
    </edge>
    <edge id=":11073174478_3" function="internal">
        <lane id=":11073174478_3_0" index="0" allow="pedestrian delivery bicycle" speed="6.86" length="3.27" shape="297.27,686.06 299.63,687.56 299.90,687.95"/>
    </edge>
    <edge id=":11073174478_7" function="internal">
        <lane id=":11073174478_7_0" index="0" allow="pedestrian delivery bicycle" speed="6.86" length="6.91" shape="299.90,687.95 300.94,689.45 301.19,691.74 300.40,694.41"/>
    </edge>
    <edge id=":11073174478_4" function="internal">
        <lane id=":11073174478_4_0" index="0" allow="pedestrian delivery bicycle" speed="5.04" length="5.01" shape="297.49,693.08 297.88,691.77 297.76,690.64 297.11,689.71 295.95,688.98"/>
    </edge>
    <edge id=":11073174478_5" function="internal">
        <lane id=":11073174478_5_0" index="0" allow="pedestrian delivery bicycle" speed="6.87" length="10.16" shape="297.49,693.08 299.00,690.73 300.89,689.43 303.17,689.16 305.84,689.93"/>
    </edge>
    <edge id=":11073174478_6" function="internal">
        <lane id=":11073174478_6_0" index="0" allow="pedestrian delivery bicycle" speed="3.65" length="4.67" shape="297.49,693.08 298.72,692.32 299.61,692.29 300.18,692.99 300.40,694.41"/>
    </edge>
    <edge id=":11073174479_0" function="internal">
        <lane id=":11073174479_0_0" index="0" allow="pedestrian delivery bicycle" speed="5.56" length="9.40" shape="298.69,705.65 290.12,701.76"/>
    </edge>
    <edge id=":11073174479_1" function="internal">
        <lane id=":11073174479_1_0" index="0" allow="pedestrian delivery bicycle" speed="5.56" length="10.17" shape="298.69,705.65 296.34,704.15 295.03,702.26 294.77,699.98 295.56,697.30"/>
    </edge>
    <edge id=":11073174479_2" function="internal">
        <lane id=":11073174479_2_0" index="0" allow="pedestrian delivery bicycle" speed="3.65" length="4.67" shape="298.69,705.65 297.92,704.43 297.89,703.54 298.59,702.97 300.01,702.74"/>
    </edge>
    <edge id=":11073174479_3" function="internal">
        <lane id=":11073174479_3_0" index="0" allow="pedestrian delivery bicycle" speed="5.04" length="5.00" shape="298.47,698.63 298.09,699.95 298.21,701.07 298.85,702.00 300.01,702.74"/>
    </edge>
    <edge id=":11073174479_4" function="internal">
        <lane id=":11073174479_4_0" index="0" allow="pedestrian delivery bicycle" speed="5.56" length="10.16" shape="298.47,698.63 296.97,700.98 295.08,702.28 292.79,702.54 290.12,701.76"/>
    </edge>
    <edge id=":11073174479_5" function="internal">
        <lane id=":11073174479_5_0" index="0" allow="pedestrian delivery bicycle" speed="3.65" length="4.67" shape="298.47,698.63 297.25,699.39 296.35,699.42 295.79,698.73 295.56,697.30"/>
    </edge>
    <edge id=":11073174479_6" function="internal">
        <lane id=":11073174479_6_0" index="0" allow="pedestrian delivery bicycle" speed="5.05" length="5.01" shape="291.45,698.85 292.76,699.23 293.89,699.10 294.82,698.46 295.56,697.30"/>
    </edge>
    <edge id=":11073174479_7" function="internal">
        <lane id=":11073174479_7_0" index="0" allow="pedestrian delivery bicycle" speed="5.56" length="9.40" shape="291.45,698.85 300.01,702.74"/>
    </edge>
    <edge id=":11073174479_8" function="internal">
        <lane id=":11073174479_8_0" index="0" allow="pedestrian delivery bicycle" speed="3.65" length="4.67" shape="291.45,698.85 292.21,700.07 292.24,700.97 291.55,701.53 290.12,701.76"/>
    </edge>
    <edge id=":11073174480_0" function="internal">
        <lane id=":11073174480_0_0" index="0" allow="pedestrian delivery bicycle" speed="3.65" length="4.67" shape="315.12,709.60 315.88,710.83 315.92,711.72 315.22,712.28 313.80,712.52"/>
    </edge>
    <edge id=":11073174481_0" function="internal">
        <lane id=":11073174481_0_0" index="0" allow="pedestrian delivery bicycle" speed="3.65" length="4.67" shape="283.15,698.59 282.39,697.36 282.35,696.47 283.05,695.90 284.47,695.67"/>
    </edge>
    <edge id=":11073174510_0" function="internal">
        <lane id=":11073174510_0_0" index="0" allow="pedestrian bicycle" speed="5.56" length="5.00" width="2.00" shape="387.61,510.50 386.84,505.55"/>
    </edge>
    <edge id=":11073174510_1" function="internal">
        <lane id=":11073174510_1_0" index="0" allow="pedestrian bicycle" speed="2.89" length="2.92" width="2.00" shape="387.61,510.50 387.99,509.68 388.44,509.35 388.97,509.52 389.58,510.19"/>
    </edge>
    <edge id=":11073174510_2" function="internal">
        <lane id=":11073174510_2_0" index="0" allow="pedestrian bicycle" speed="5.56" length="5.00" width="2.00" shape="388.81,505.24 389.58,510.19"/>
    </edge>
    <edge id=":11073174510_3" function="internal">
        <lane id=":11073174510_3_0" index="0" allow="pedestrian bicycle" speed="2.89" length="2.92" width="2.00" shape="388.81,505.24 388.43,506.06 387.98,506.39 387.45,506.22 386.84,505.55"/>
    </edge>
    <edge id=":11073174536_0" function="internal">
        <lane id=":11073174536_0_0" index="0" disallow="tram rail_urban rail rail_electric rail_fast ship container cable_car subway aircraft wheelchair scooter drone" speed="11.59" length="11.51" shape="309.59,546.31 313.01,546.67 315.50,546.43 317.74,545.51 320.40,543.81"/>
    </edge>
    <edge id=":11073174536_1" function="internal">
        <lane id=":11073174536_1_0" index="0" disallow="tram rail_urban rail rail_electric rail_fast ship container cable_car subway aircraft wheelchair scooter drone" speed="7.28" length="8.97" shape="314.17,558.85 313.52,556.40 312.38,554.55 310.76,553.30 308.65,552.64"/>
    </edge>
    <edge id=":11073174536_2" function="internal">
        <lane id=":11073174536_2_0" index="0" disallow="tram rail_urban rail rail_electric rail_fast ship container cable_car subway aircraft wheelchair scooter drone" speed="10.74" length="17.22" shape="314.17,558.85 314.02,554.24 315.01,550.20 317.13,546.72 320.40,543.81"/>
    </edge>
    <edge id=":11073174538_0" function="internal">
        <lane id=":11073174538_0_0" index="0" disallow="tram rail_urban rail rail_electric rail_fast ship container cable_car subway aircraft wheelchair scooter drone" speed="7.30" length="8.96" shape="347.58,551.43 345.51,552.27 343.99,553.65 343.00,555.57 342.55,558.04"/>
    </edge>
    <edge id=":11073174538_1" function="internal">
        <lane id=":11073174538_1_0" index="0" disallow="tram rail_urban rail rail_electric rail_fast ship container cable_car subway aircraft wheelchair scooter drone" speed="8.36" length="9.41" shape="338.31,545.54 340.23,547.20 342.29,548.21 344.49,548.58 346.83,548.32"/>
    </edge>
    <edge id=":11073174538_2" function="internal">
        <lane id=":11073174538_2_0" index="0" disallow="tram rail_urban rail rail_electric rail_fast ship container cable_car subway aircraft wheelchair scooter drone" speed="11.78" length="13.58" shape="338.31,545.54 340.35,548.21 341.73,551.18 342.47,554.46 342.55,558.04"/>
    </edge>
    <edge id=":11073174539_0" function="internal">
        <lane id=":11073174539_0_0" index="0" disallow="tram rail_urban rail rail_electric rail_fast ship container cable_car subway aircraft wheelchair scooter drone" speed="7.31" length="8.96" shape="332.69,575.09 331.87,573.03 330.49,571.51 328.57,570.51 326.08,570.04"/>
    </edge>
    <edge id=":11073174539_1" function="internal">
        <lane id=":11073174539_1_0" index="0" disallow="tram rail_urban rail rail_electric rail_fast ship container cable_car subway aircraft wheelchair scooter drone" speed="8.26" length="9.48" shape="338.65,565.83 336.97,567.69 335.93,569.73 335.54,571.95 335.80,574.36"/>
    </edge>
    <edge id=":11073174539_2" function="internal">
        <lane id=":11073174539_2_0" index="0" disallow="tram rail_urban rail rail_electric rail_fast ship container cable_car subway aircraft wheelchair scooter drone" speed="12.03" length="13.61" shape="338.65,565.83 335.85,567.87 332.82,569.25 329.56,569.98 326.08,570.04"/>
    </edge>
    <edge id=":11073174607_0" function="internal">
        <lane id=":11073174607_0_0" index="0" disallow="tram rail_urban rail rail_electric rail_fast ship container cable_car subway aircraft wheelchair scooter drone" speed="7.28" length="9.07" shape="434.05,744.47 435.84,745.80 437.82,746.36 440.01,746.17 442.41,745.21"/>
    </edge>
    <edge id=":11073174607_1" function="internal">
        <lane id=":11073174607_1_0" index="0" disallow="tram rail_urban rail rail_electric rail_fast ship container cable_car subway aircraft wheelchair scooter drone" speed="7.69" length="9.39" shape="433.13,755.37 433.90,752.97 433.93,750.73 433.22,748.64 431.77,746.71"/>
    </edge>
    <edge id=":11073174607_2" function="internal">
        <lane id=":11073174607_2_0" index="0" disallow="tram rail_urban rail rail_electric rail_fast ship container cable_car subway aircraft wheelchair scooter drone" speed="13.89" length="14.02" shape="433.13,755.37 434.84,752.20 436.90,749.47 439.39,747.16 442.41,745.21"/>
    </edge>
    <edge id=":1113698562_0" function="internal">
        <lane id=":1113698562_0_0" index="0" allow="rail rail_electric rail_fast" speed="16.67" length="2.99" shape="324.10,401.35 321.13,401.74"/>
    </edge>
    <edge id=":1113698562_1" function="internal">
        <lane id=":1113698562_1_0" index="0" allow="rail rail_electric rail_fast" speed="44.44" length="3.01" shape="321.12,401.61 324.13,401.57"/>
    </edge>
    <edge id=":1113698573_0" function="internal">
        <lane id=":1113698573_0_0" index="0" allow="rail rail_electric rail_fast" speed="44.44" length="3.00" shape="592.65,377.85 590.12,379.47"/>
    </edge>
    <edge id=":1113698573_1" function="internal">
        <lane id=":1113698573_1_0" index="0" allow="rail" speed="2.82" length="1.58" shape="590.19,379.57 590.67,379.22 590.82,379.09 590.64,379.17 590.12,379.47"/>
    </edge>
    <edge id=":1113698629_0" function="internal">
        <lane id=":1113698629_0_0" index="0" allow="rail rail_electric rail_fast" speed="44.44" length="2.51" shape="651.25,337.67 649.15,339.05"/>
    </edge>
    <edge id=":1113698639_0" function="internal">
        <lane id=":1113698639_0_0" index="0" allow="rail rail_electric rail_fast" speed="27.77" length="26.60" shape="710.88,300.15 706.03,302.86 699.37,306.81 692.76,310.84 688.05,313.80"/>
    </edge>
    <edge id=":1113698639_1" function="internal">
        <lane id=":1113698639_1_0" index="0" allow="rail rail_electric rail_fast" speed="11.11" length="26.59" shape="710.88,300.15 686.48,310.73"/>
    </edge>
    <edge id=":1113698660_0" function="internal">
        <lane id=":1113698660_0_0" index="0" allow="rail rail_electric rail_fast" speed="36.11" length="2.89" shape="847.62,224.63 850.16,223.27"/>
    </edge>
    <edge id=":11746772640_0" function="internal">
        <lane id=":11746772640_0_0" index="0" allow="pedestrian delivery bicycle" speed="5.56" length="5.95" shape="1054.07,232.35 1052.87,238.18"/>
    </edge>
    <edge id=":11746772640_1" function="internal">
        <lane id=":11746772640_1_0" index="0" allow="bicycle" speed="5.56" length="7.47" width="2.00" shape="1053.48,232.23 1052.83,233.62 1051.56,234.46 1049.68,234.74 1047.18,234.48"/>
    </edge>
    <edge id=":11746772640_2" function="internal">
        <lane id=":11746772640_2_0" index="0" allow="pedestrian delivery bicycle" speed="3.65" length="4.67" shape="1054.07,232.35 1053.04,233.36 1052.18,233.59 1051.47,233.04 1050.93,231.70"/>
    </edge>
    <edge id=":11746772640_3" function="internal">
        <lane id=":11746772640_3_0" index="0" allow="bicycle" speed="4.08" length="3.27" width="2.00" shape="1047.56,232.52 1048.67,232.64 1049.50,232.52 1050.06,232.17 1050.35,231.58"/>
    </edge>
    <edge id=":11746772640_4" function="internal">
        <lane id=":11746772640_4_0" index="0" allow="bicycle" speed="5.56" length="9.32" width="2.00" shape="1047.56,232.52 1050.48,233.37 1052.44,234.62 1053.43,236.26 1053.45,238.30"/>
    </edge>
    <edge id=":11746772640_5" function="internal">
        <lane id=":11746772640_5_0" index="0" allow="bicycle" speed="2.89" length="2.92" width="2.00" shape="1047.56,232.52 1048.20,233.15 1048.35,233.69 1048.01,234.13 1047.18,234.48"/>
    </edge>
    <edge id=":11746772640_6" function="internal">
        <lane id=":11746772640_6_0" index="0" allow="bicycle" speed="4.61" length="4.04" width="2.00" shape="1049.14,237.42 1049.21,236.31 1048.91,235.45 1048.23,234.84 1047.18,234.48"/>
    </edge>
    <edge id=":11746772640_7" function="internal">
        <lane id=":11746772640_7_0" index="0" allow="pedestrian delivery bicycle" speed="5.56" length="5.96" shape="1049.73,237.54 1050.93,231.70"/>
    </edge>
    <edge id=":11746772640_8" function="internal">
        <lane id=":11746772640_8_0" index="0" allow="pedestrian delivery bicycle" speed="3.65" length="4.67" shape="1049.73,237.54 1050.76,236.52 1051.62,236.29 1052.32,236.84 1052.87,238.18"/>
    </edge>
    <edge id=":12037246964_0" function="internal">
        <lane id=":12037246964_0_0" index="0" allow="pedestrian delivery bicycle" speed="5.56" length="5.43" shape="797.74,411.12 793.30,408.00"/>
    </edge>
    <edge id=":12037246964_1" function="internal">