<routes xmlns:xsi="http://www.w3.org/2001/XMLSchema-instance" xsi:noNamespaceSchemaLocation="http://sumo.dlr.de/xsd/routes_file.xsd">
    <route edges="C1D1 D1D0 D0C0 C0B0 B0B1 B1A1 A1A0 A0B0" id="route1" />


    <route edges="B1A1 A1A2 A2B2 B2B1 B1B0 B0A0" id="route2" />


    <route edges="C3B3 B3B2 B2C2 C2C1" id="route3" />


    <route edges="D1D2 D2C2 C2B2 B2A2 A2A1 A1B1" id="route4" />


    <route edges="B2C2 C2C1 C1B1 B1A1 A1A0 A0B0" id="route5" />


    <route edges="B0A0 A0A1 A1B1 B1C1 C1C0 C0B0" id="route6" />


    <route edges="A0B0 B0B1 B1B2 B2A2 A2A3 A3B3" id="route7" />


    <route edges="C2B2 B2B1 B1B0 B0C0 C0D0" id="route8" />


    <route edges="B0A0 A0A1 A1B1 B1C1 C1C0" id="route9" />


    <route edges="D0C0 C0B0 B0A0 A0A1" id="route10" />


    <route edges="D0C0 C0C1 C1C2 C2C3" id="route11" />


    <route edges="B1C1 C1C0 C0B0 B0A0 A0A1 A1A2 A2B2" id="route12" />


    <route edges="D2D3 D3C3 C3B3 B3B2 B2B1 B1C1" id="route13" />


    <route edges="A1B1" id="route14" />


    <route edges="D1C1 C1C0" id="route15" />


    <route edges="D0C0 C0C1 C1C2 C2C3 C3B3" id="route16" />


    <route edges="C0C1 C1C2 C2D2 D2D3 D3C3" id="route17" />


    <route edges="B2B1 B1B0 B0C0 C0D0" id="route18" />


    <route edges="D0D1 D1C1 C1C2" id="route19" />


    <route edges="D1D0 D0C0 C0C1 C1B1" id="route20" />


    <route edges="C2C3 C3B3 B3A3 A3A2 A2A1 A1A0" id="route21" />


    <route edges="B0A0 A0A1 A1A2 A2B2 B2B1 B1A1" id="route22" />


    <route edges="A1A2 A2B2 B2C2 C2C1 C1C0 C0B0 B0B1" id="route23" />


    <route edges="A1B1 B1B2 B2C2 C2C1 C1B1 B1A1" id="route24" />


    <route edges="C1D1 D1D2 D2C2 C2B2 B2A2" id="route25" />


    <route edges="B2A2 A2A1 A1B1 B1B0 B0A0" id="route26" />


    <route edges="B0C0 C0C1 C1C2 C2D2 D2D1" id="route27" />


    <route edges="C2B2 B2B1 B1C1 C1C2" id="route28" />


    <route edges="A3A2 A2B2 B2C2 C2D2" id="route29" />


    <route edges="A2B2 B2B1" id="route30" />


    <route edges="D3D2 D2C2 C2C1 C1D1" id="route31" />


    <route edges="C0D0 D0D1 D1D2 D2C2 C2C1" id="route32" />


    <route edges="D1C1 C1C2 C2C3 C3D3" id="route33" />


    <route edges="B0A0 A0A1 A1A2 A2B2 B2B1 B1A1 A1A0 A0B0" id="route34" />


    <route edges="B1B2 B2C2 C2C1 C1B1 B1B0 B0C0" id="route35" />


    <route edges="B0A0 A0A1 A1B1 B1C1 C1D1 D1D2 D2D3" id="route36" />


    <route edges="D1D2 D2C2 C2C1 C1B1 B1B2" id="route37" />


    <route edges="C2B2 B2B1" id="route38" />


    <route edges="D2C2 C2C3 C3B3 B3B2" id="route39" />


    <route edges="B0C0 C0C1 C1D1 D1D0 D0C0 C0B0 B0B1" id="route40" />


    <route edges="C0D0 D0D1 D1C1 C1B1 B1B0 B0C0" id="route41" />


    <route edges="C1C0 C0D0 D0D1 D1D2 D2C2" id="route42" />


    <route edges="B2B3 B3C3 C3C2 C2C1 C1C0 C0B0 B0A0" id="route43" />


    <route edges="D3D2 D2D1 D1D0 D0C0 C0B0" id="route44" />


    <route edges="A1B1 B1B2 B2A2 A2A1 A1A0" id="route45" />


    <route edges="A2A1 A1B1 B1C1 C1D1" id="route46" />


    <route edges="D0C0 C0B0 B0B1 B1B2 B2C2" id="route47" />


    <route edges="A1A2 A2B2 B2B1" id="route48" />


    <route edges="D3D2 D2D1 D1D0 D0C0 C0C1" id="route49" />


    <route edges="D3C3 C3C2 C2C1 C1D1 D1D0" id="route50" />


    <route edges="A0A1 A1A2 A2B2 B2C2 C2D2" id="route51" />


    <route edges="C2C1 C1D1 D1D0 D0C0 C0C1" id="route52" />


    <route edges="B0C0 C0C1 C1D1" id="route53" />


    <route edges="A2A1 A1B1 B1B2 B2C2" id="route54" />


    <route edges="B3A3 A3A2 A2B2 B2C2 C2D2 D2D3" id="route55" />


    <route edges="D1D2 D2C2 C2B2 B2B1 B1B0 B0C0" id="route56" />


    <route edges="C0B0 B0B1 B1B2 B2B3 B3A3 A3A2" id="route57" />


    <route edges="D2C2 C2C1 C1D1 D1D0" id="route58" />


    <route edges="B1B0 B0C0 C0C1 C1D1" id="route59" />


    <route edges="C1C2 C2C3 C3B3 B3A3 A3A2 A2B2" id="route60" />


    <route edges="C3C2 C2C1 C1D1 D1D0 D0C0 C0C1" id="route61" />


    <route edges="C3D3 D3D2 D2D1 D1D0 D0C0 C0C1" id="route62" />


    <route edges="A0A1 A1B1 B1B2" id="route63" />


    <route edges="A0A1 A1A2 A2B2 B2C2 C2D2 D2D1" id="route64" />


    <route edges="D1D2 D2C2 C2C1 C1C0 C0D0 D0D1" id="route65" />


    <route edges="B1B0 B0C0 C0C1 C1B1 B1A1 A1A0" id="route66" />


    <route edges="D1D2 D2D3" id="route67" />


    <route edges="A1B1 B1B2 B2B3 B3C3" id="route68" />


    <route edges="A1A2 A2A3 A3B3 B3C3 C3C2" id="route69" />


    <route edges="C3C2 C2B2 B2A2 A2A3" id="route70" />


    <route edges="B3B2 B2B1 B1B0 B0C0 C0D0" id="route71" />


    <route edges="B0C0 C0C1 C1D1 D1D0" id="route72" />


    <route edges="B2C2 C2C1 C1C0 C0B0 B0A0" id="route73" />


    <route edges="C0C1 C1C2 C2C3 C3B3" id="route74" />


    <route edges="A3B3 B3B2 B2B1 B1B0" id="route75" />


    <route edges="D3D2 D2C2 C2B2" id="route76" />


    <route edges="B3A3 A3A2 A2A1 A1B1 B1C1 C1C0 C0B0" id="route77" />


    <route edges="A2A1 A1B1 B1B0 B0A0" id="route78" />


    <route edges="B1C1 C1C0" id="route79" />


    <route edges="B0B1 B1C1 C1C0 C0B0 B0A0" id="route80" />


    <route edges="A1A2 A2B2 B2C2 C2C1 C1D1" id="route81" />


    <route edges="B0A0 A0A1 A1B1 B1C1 C1D1 D1D2 D2C2" id="route82" />


    <route edges="D1D0 D0C0 C0B0 B0A0 A0A1 A1A2" id="route83" />


    <route edges="B0B1 B1B2 B2C2 C2C1" id="route84" />


    <route edges="B0A0 A0A1 A1A2 A2A3" id="route85" />


    <route edges="D2D1 D1C1 C1B1" id="route86" />


    <route edges="B3B2 B2C2 C2C3 C3D3" id="route87" />


    <route edges="D0C0 C0B0 B0A0 A0A1 A1A2 A2A3 A3B3" id="route88" />


    <route edges="A1B1 B1B2 B2C2" id="route89" />


    <route edges="B2C2 C2C3 C3B3 B3B2" id="route90" />


    <route edges="C2D2 D2D3 D3C3 C3C2 C2C1" id="route91" />


    <route edges="D3D2 D2C2 C2B2 B2A2 A2A1 A1B1" id="route92" />


    <route edges="B2B3 B3A3 A3A2 A2A1 A1B1 B1C1" id="route93" />


    <route edges="D1D0 D0C0 C0B0 B0B1" id="route94" />


    <route edges="A3B3 B3C3 C3C2 C2B2 B2B3 B3A3" id="route95" />


    <route edges="B2C2 C2C1 C1B1 B1A1" id="route96" />


    <route edges="B0B1 B1B2 B2C2 C2D2 D2D1" id="route97" />


    <route edges="B3A3 A3A2 A2A1 A1B1 B1C1 C1D1 D1D0" id="route98" />


    <route edges="C0D0 D0D1 D1C1 C1B1 B1A1 A1A0" id="route99" />


    <route edges="D3D2 D2D1 D1C1" id="route100" />


    <route edges="D3C3 C3C2 C2D2 D2D1" id="route101" />


    <route edges="D1C1 C1B1 B1A1 A1A2 A2B2" id="route102" />


    <route edges="B3C3 C3C2 C2C1 C1C0 C0B0 B0A0" id="route103" />


    <route edges="B2B3 B3A3 A3A2 A2A1 A1A0" id="route104" />


    <route edges="B2B1 B1C1 C1C2 C2C3 C3D3 D3D2" id="route105" />


    <route edges="B0C0 C0C1 C1C2 C2C3 C3D3" id="route106" />


    <route edges="B3A3 A3A2 A2B2 B2C2" id="route107" />


    <route edges="D2D3 D3C3 C3C2 C2B2 B2B3 B3C3 C3D3 D3D2" id="route108" />


    <route edges="C0D0 D0D1 D1C1 C1C2 C2D2" id="route109" />


    <route edges="A2B2 B2B1 B1B0" id="route110" />


    <route edges="D3C3 C3C2 C2C1 C1B1" id="route111" />


    <route edges="C0D0 D0D1 D1D2 D2D3 D3C3 C3B3" id="route112" />


    <route edges="A1A0 A0B0 B0B1 B1C1 C1C0" id="route113" />


    <route edges="C0B0 B0B1 B1B2 B2C2 C2D2 D2D1 D1C1" id="route114" />


    <route edges="A2B2 B2C2 C2D2 D2D3 D3C3" id="route115" />


    <route edges="A1A2 A2B2 B2B3 B3A3 A3A2" id="route116" />


    <route edges="C1C0 C0B0 B0B1 B1B2 B2C2 C2C1" id="route117" />


    <route edges="B0B1 B1B2 B2A2 A2A1" id="route118" />


    <route edges="D1D2 D2C2 C2C1 C1C0 C0B0 B0B1" id="route119" />


    <route edges="C1C0 C0B0 B0B1 B1C1 C1C2" id="route120" />


    <route edges="B2C2 C2C1 C1C0" id="route121" />


    <route edges="C0C1 C1C2 C2D2 D2D1" id="route122" />


    <route edges="A3B3 B3C3 C3C2 C2D2" id="route123" />


    <route edges="B0B1 B1A1 A1A2 A2B2 B2B1" id="route124" />


    <route edges="C2C1 C1B1 B1B0" id="route125" />


    <route edges="B1B2 B2B3 B3C3 C3C2" id="route126" />


    <route edges="A1A2 A2B2 B2B3 B3A3" id="route127" />


    <route edges="D3D2" id="route128" />


    <route edges="A1A2 A2B2 B2B1 B1B0 B0A0" id="route129" />


    <route edges="B0C0 C0C1 C1C2 C2D2 D2D1" id="route130" />


    <route edges="D1D2" id="route131" />


    <route edges="B2A2 A2A3 A3B3 B3B2 B2B1 B1A1 A1A2 A2B2" id="route132" />


    <route edges="D1C1 C1C2 C2C3" id="route133" />


    <route edges="C1C2 C2C3 C3D3 D3D2" id="route134" />


    <route edges="C2B2 B2B1 B1B0 B0A0 A0A1" id="route135" />


    <route edges="D0D1 D1C1 C1B1 B1B0" id="route136" />


    <route edges="C2B2 B2B3 B3C3 C3C2 C2D2 D2D3" id="route137" />


    <route edges="A2A3 A3B3 B3B2 B2A2 A2A1" id="route138" />


    <route edges="A2A1 A1A0 A0B0 B0C0 C0D0" id="route139" />


    <route edges="B1A1 A1A0 A0B0 B0C0 C0C1 C1C2" id="route140" />


    <route edges="C2D2 D2D1 D1C1 C1B1 B1A1 A1A2 A2A3 A3B3" id="route141" />


    <route edges="C1D1 D1D0 D0C0 C0C1 C1B1 B1B0 B0C0" id="route142" />


    <route edges="B3C3 C3D3 D3D2 D2C2" id="route143" />


    <route edges="D1C1 C1B1 B1B0 B0A0 A0A1 A1B1" id="route144" />


    <route edges="B2C2 C2C1 C1B1 B1A1" id="route145" />


    <route edges="A0A1 A1A2 A2A3 A3B3 B3C3 C3D3" id="route146" />


    <route edges="C1D1 D1D0 D0C0 C0C1 C1B1 B1B0 B0C0" id="route147" />


    <route edges="C3B3 B3B2 B2B1 B1B0 B0C0 C0D0" id="route148" />


    <route edges="B2C2 C2C1 C1C0 C0B0 B0A0 A0A1" id="route149" />


    <route edges="A1A2 A2B2 B2C2 C2C1 C1D1 D1D2" id="route150" />


    <route edges="D2C2 C2C1 C1C0 C0D0" id="route151" />


    <route edges="D1C1 C1B1" id="route152" />


    <route edges="A2B2 B2B1 B1A1 A1A2 A2A3" id="route153" />


    <route edges="B1B0 B0C0 C0D0 D0D1 D1D2 D2C2" id="route154" />


    <route edges="D0C0 C0C1 C1D1 D1D0" id="route155" />


    <route edges="D2C2 C2C1 C1C0 C0B0 B0A0" id="route156" />


    <route edges="B0B1 B1B2 B2A2 A2A1 A1B1" id="route157" />


    <route edges="C3D3 D3D2 D2C2 C2C1 C1D1 D1D2" id="route158" />


    <route edges="B2B3 B3C3 C3D3 D3D2 D2D1 D1C1 C1C2" id="route159" />


    <route edges="A2B2 B2C2 C2D2 D2D1" id="route160" />


    <route edges="D1D0 D0C0 C0C1 C1C2 C2D2 D2D3 D3C3" id="route161" />


    <route edges="D0C0 C0C1 C1D1 D1D2" id="route162" />


    <route edges="A0B0 B0C0 C0C1 C1C2 C2C3 C3B3" id="route163" />


    <route edges="B1B2 B2C2 C2D2 D2D1" id="route164" />


    <route edges="D0C0 C0C1 C1D1 D1D0" id="route165" />


    <route edges="D0C0 C0C1 C1B1 B1B0 B0C0" id="route166" />


    <route edges="C3D3 D3D2 D2C2 C2B2 B2A2 A2A1" id="route167" />


    <route edges="D1D0" id="route168" />


    <route edges="B0A0 A0A1 A1B1 B1C1 C1C0 C0D0 D0D1" id="route169" />


    <route edges="B3B2 B2B1 B1B0" id="route170" />


    <route edges="D0C0 C0B0 B0A0" id="route171" />


    <route edges="A0B0 B0B1 B1B2 B2A2 A2A3 A3B3" id="route172" />


    <route edges="B1B2 B2C2 C2D2 D2D1 D1D0" id="route173" />


    <route edges="D3C3 C3C2 C2C1 C1B1 B1A1" id="route174" />


    <route edges="C1D1 D1D2 D2C2 C2B2 B2B3" id="route175" />


    <route edges="D3D2 D2D1 D1D0 D0C0 C0C1" id="route176" />


    <route edges="D2D3 D3C3 C3B3 B3A3 A3A2 A2A1" id="route177" />


    <route edges="D3C3 C3B3 B3A3 A3A2" id="route178" />


    <route edges="D3C3 C3B3 B3B2 B2B1 B1B0 B0C0" id="route179" />


    <route edges="A2A1 A1B1 B1B2 B2C2" id="route180" />


    <route edges="C2D2 D2D1 D1C1 C1B1 B1B2" id="route181" />


    <route edges="C1C2 C2D2 D2D1 D1D0 D0C0 C0B0" id="route182" />


    <route edges="B2B1 B1B0 B0C0 C0C1 C1B1" id="route183" />


    <route edges="B0C0 C0C1 C1C2 C2D2" id="route184" />


    <route edges="A0A1 A1A2 A2B2 B2C2 C2D2 D2D1" id="route185" />


    <route edges="C0C1 C1C2 C2D2" id="route186" />


    <route edges="C3B3 B3B2 B2C2 C2C1" id="route187" />


    <route edges="B2A2 A2A3 A3B3 B3B2 B2B1 B1A1 A1A2" id="route188" />


    <route edges="C2B2 B2A2 A2A1 A1B1 B1B2" id="route189" />


    <route edges="B1B2 B2C2 C2D2 D2D1 D1C1" id="route190" />


    <route edges="C2D2 D2D1 D1C1 C1B1 B1B0" id="route191" />


    <route edges="B1B0 B0A0 A0A1 A1A2 A2B2 B2B3" id="route192" />


    <route edges="B2B3 B3C3 C3C2 C2C1 C1B1 B1B0" id="route193" />


    <route edges="A2A3 A3B3 B3B2 B2C2" id="route194" />


    <route edges="D2D3 D3C3 C3C2 C2C1" id="route195" />


    <route edges="D2C2 C2B2 B2B1 B1C1 C1C2" id="route196" />


    <route edges="B1B0 B0C0 C0D0" id="route197" />


    <route edges="A0A1 A1A2 A2B2 B2B1 B1A1" id="route198" />


    <route edges="B2C2 C2C1 C1B1" id="route199" />


    <route edges="C2B2 B2A2 A2A3 A3B3 B3B2" id="route200" />


    <route edges="B3A3 A3A2 A2A1 A1B1 B1B0 B0A0" id="route201" />


    <route edges="B3B2 B2C2 C2C3 C3D3 D3D2 D2C2" id="route202" />


    <route edges="D0C0 C0B0 B0B1 B1B2 B2B3 B3A3 A3A2" id="route203" />


    <route edges="A1B1 B1C1 C1C0 C0B0" id="route204" />


    <route edges="C1D1 D1D0 D0C0 C0B0 B0B1 B1C1" id="route205" />


    <route edges="D0D1 D1D2 D2D3 D3C3 C3C2" id="route206" />


    <route edges="C2C1 C1C0 C0B0 B0A0" id="route207" />


    <route edges="A3B3 B3B2 B2B1 B1A1 A1A0 A0B0" id="route208" />


    <route edges="B0B1 B1B2 B2A2 A2A3 A3B3 B3B2" id="route209" />


    <route edges="D1C1 C1B1 B1A1 A1A2" id="route210" />


    <route edges="B2B3 B3C3 C3C2 C2C1 C1D1" id="route211" />


    <route edges="A3B3 B3B2 B2C2 C2C3" id="route212" />


    <route edges="B3C3 C3C2 C2C1 C1C0 C0B0 B0B1" id="route213" />


    <route edges="C2B2 B2B1 B1B0 B0A0 A0A1" id="route214" />


    <route edges="C3C2" id="route215" />


    <route edges="A2A1 A1B1 B1B2 B2C2" id="route216" />


    <route edges="A3A2 A2B2 B2C2 C2D2 D2D3" id="route217" />


    <route edges="C0B0 B0B1 B1A1 A1A0" id="route218" />


    <route edges="B0B1 B1B2 B2C2 C2D2 D2D1 D1C1" id="route219" />


    <route edges="B3A3 A3A2 A2A1 A1B1 B1C1 C1D1 D1D0 D0C0" id="route220" />


    <route edges="C2C1 C1B1 B1B2 B2B3 B3C3 C3D3 D3D2" id="route221" />


    <route edges="C1C0 C0D0 D0D1 D1D2 D2D3" id="route222" />


    <route edges="D1D2 D2C2 C2B2 B2B1 B1C1 C1C2" id="route223" />


    <route edges="C2D2 D2D1 D1D0 D0C0 C0B0" id="route224" />


    <route edges="D0D1 D1C1 C1C0 C0D0" id="route225" />


    <route edges="D2C2 C2C3 C3B3" id="route226" />


    <route edges="B3B2 B2B1 B1B0 B0C0" id="route227" />


    <route edges="B0B1 B1C1 C1D1" id="route228" />


    <route edges="C3C2 C2C1 C1D1 D1D0 D0C0 C0C1" id="route229" />


    <route edges="C1D1 D1D0 D0C0 C0B0 B0B1 B1A1" id="route230" />


    <route edges="A1A2 A2B2 B2B1 B1A1" id="route231" />


    <route edges="B1A1 A1A0 A0B0 B0B1 B1B2" id="route232" />


    <route edges="C0C1 C1B1 B1A1 A1A2 A2A3" id="route233" />


    <route edges="B0B1 B1B2 B2C2 C2C3" id="route234" />


    <route edges="C2C3 C3B3 B3B2 B2B1 B1A1 A1A2" id="route235" />


    <route edges="B2B3 B3C3 C3C2 C2C1 C1C0 C0D0" id="route236" />


    <route edges="B2B3 B3C3 C3C2 C2B2 B2A2 A2A3 A3B3" id="route237" />


    <route edges="B2C2 C2C3 C3D3 D3D2 D2C2" id="route238" />


    <route edges="C1C0 C0B0 B0B1 B1B2 B2C2 C2C3" id="route239" />


    <route edges="D1D0 D0C0 C0B0 B0B1 B1B2 B2B3 B3C3 C3C2" id="route240" />


    <route edges="B2B1 B1B0 B0A0 A0A1" id="route241" />


    <route edges="B1C1 C1D1 D1D2 D2D3 D3C3 C3C2" id="route242" />


    <route edges="D1C1 C1C2 C2D2 D2D3" id="route243" />


    <route edges="B2C2 C2C3 C3B3" id="route244" />


    <route edges="C0D0 D0D1 D1C1 C1C0" id="route245" />


    <route edges="B0A0" id="route246" />


    <route edges="B2C2 C2C1 C1B1 B1A1 A1A0 A0B0" id="route247" />


    <route edges="B1C1 C1D1 D1D2 D2C2 C2C1" id="route248" />


    <route edges="B2B3 B3A3 A3A2 A2B2" id="route249" />


    <route edges="B3B2 B2A2 A2A3" id="route250" />


    <route edges="C1C2 C2B2 B2A2 A2A1 A1A0 A0B0" id="route251" />


    <route edges="B2B1 B1B0 B0C0 C0C1 C1B1" id="route252" />


    <route edges="A0B0 B0B1 B1C1 C1D1" id="route253" />


    <route edges="A2A3 A3B3 B3B2" id="route254" />


    <route edges="A1A0 A0B0 B0B1 B1A1 A1A2 A2B2 B2B1" id="route255" />


    <route edges="B0A0 A0A1 A1B1 B1B2" id="route256" />


    <route edges="C3C2 C2B2 B2B1" id="route257" />


    <route edges="C3C2 C2C1 C1C0 C0D0 D0D1" id="route258" />


    <route edges="B0C0 C0C1 C1B1 B1A1 A1A2" id="route259" />


    <route edges="A0A1 A1B1 B1B0 B0C0 C0C1" id="route260" />


    <route edges="D3D2 D2C2 C2B2 B2B1 B1C1" id="route261" />


    <route edges="C2B2 B2B3 B3C3 C3D3" id="route262" />


    <route edges="C2B2 B2B3 B3C3 C3C2" id="route263" />


    <route edges="D2D3 D3C3 C3B3 B3B2 B2A2 A2A3 A3B3" id="route264" />


    <route edges="A0A1 A1A2 A2B2" id="route265" />


    <route edges="A2A3 A3B3 B3C3 C3C2 C2C1" id="route266" />


    <route edges="C1B1 B1B0 B0A0" id="route267" />


    <route edges="C2C3 C3D3 D3D2 D2C2 C2B2 B2B3 B3C3 C3C2" id="route268" />


    <route edges="A3A2 A2A1 A1B1 B1C1 C1C2" id="route269" />


    <route edges="C3B3 B3A3 A3A2 A2A1" id="route270" />


    <route edges="D0D1 D1D2 D2D3 D3C3" id="route271" />


    <route edges="A2A1 A1A0 A0B0" id="route272" />


    <route edges="B1B0 B0A0 A0A1 A1A2 A2B2 B2C2 C2C1" id="route273" />


    <route edges="D2D3 D3C3 C3C2 C2B2 B2B3" id="route274" />


    <route edges="C2D2 D2D1 D1C1 C1B1 B1A1 A1A2" id="route275" />


    <route edges="C2C3 C3D3 D3D2 D2C2 C2C1 C1D1" id="route276" />


    <route edges="A1B1 B1B2 B2B3 B3C3 C3D3" id="route277" />


    <route edges="D1C1 C1C0" id="route278" />


    <route edges="A2A1 A1B1 B1C1 C1C2 C2C3 C3D3 D3D2" id="route279" />


    <route edges="C3D3 D3D2 D2C2 C2B2 B2B1 B1C1" id="route280" />


    <route edges="B2C2 C2C1 C1B1 B1B2 B2A2" id="route281" />


    <route edges="C0B0 B0B1 B1C1" id="route282" />


    <route edges="D1C1 C1C0 C0D0 D0D1" id="route283" />


    <route edges="A2A1 A1B1 B1C1 C1D1 D1D2 D2D3 D3C3" id="route284" />


    <route edges="C1D1 D1D2 D2C2 C2C1 C1C0 C0D0 D0D1" id="route285" />


    <route edges="C2C3 C3B3 B3B2 B2C2" id="route286" />


    <route edges="C3B3 B3B2 B2C2 C2D2 D2D3 D3C3" id="route287" />


    <route edges="B0C0 C0C1 C1D1 D1D0 D0C0" id="route288" />


    <route edges="C0C1 C1B1 B1B2 B2B3 B3C3" id="route289" />


    <route edges="B2C2 C2C3 C3B3" id="route290" />


    <route edges="B0C0 C0D0 D0D1 D1C1" id="route291" />


    <route edges="D0D1 D1C1 C1B1 B1B0 B0A0 A0A1 A1B1" id="route292" />


    <route edges="D1D2 D2C2 C2C1 C1C0 C0B0 B0B1" id="route293" />


    <route edges="B3B2 B2B1 B1C1 C1C2" id="route294" />


    <route edges="B2B1 B1A1 A1A0 A0B0" id="route295" />


    <route edges="D1C1 C1B1 B1B2 B2B3 B3A3 A3A2" id="route296" />


    <route edges="B0A0 A0A1 A1B1 B1C1 C1D1 D1D0 D0C0" id="route297" />


    <route edges="B1C1 C1D1 D1D2" id="route298" />


    <route edges="C2C3 C3B3 B3B2 B2B1 B1A1" id="route299" />


    <route edges="A0A1 A1A2 A2B2 B2C2 C2D2 D2D3" id="route300" />


    <route edges="A1B1 B1B2 B2C2 C2D2" id="route301" />


    <route edges="B3C3 C3C2" id="route302" />


    <route edges="C2C3 C3D3 D3D2 D2C2 C2B2" id="route303" />


    <route edges="B3C3 C3D3 D3D2 D2D1 D1D0 D0C0" id="route304" />


    <route edges="A1B1 B1B0 B0A0" id="route305" />


    <route edges="C2C3 C3B3 B3B2 B2B1 B1B0" id="route306" />


    <route edges="C1B1 B1A1 A1A2 A2A3 A3B3 B3B2" id="route307" />


    <route edges="C0C1 C1B1 B1B2 B2C2" id="route308" />


    <route edges="C3B3 B3B2 B2C2 C2C1 C1B1 B1B2" id="route309" />


    <route edges="C2C3 C3B3 B3B2 B2B1 B1A1" id="route310" />


    <route edges="B0C0 C0C1 C1C2 C2B2 B2A2 A2A1" id="route311" />


    <route edges="A3B3 B3B2 B2A2 A2A1" id="route312" />


    <route edges="C0C1 C1B1 B1B2 B2B3 B3C3 C3C2" id="route313" />


    <route edges="A3A2 A2B2 B2B1 B1B0 B0A0" id="route314" />


    <route edges="B3C3 C3C2 C2D2" id="route315" />


    <route edges="D3C3 C3C2 C2C1 C1D1 D1D0 D0C0 C0C1" id="route316" />


    <route edges="B1A1 A1A2 A2B2 B2B1 B1B0 B0A0 A0A1 A1B1" id="route317" />


    <route edges="A3B3 B3B2 B2B1 B1B0 B0A0" id="route318" />


    <route edges="A3A2 A2B2 B2B1 B1B0 B0A0 A0A1" id="route319" />


    <route edges="C0C1 C1B1 B1A1" id="route320" />


    <route edges="D3C3 C3C2 C2C1 C1C0 C0D0" id="route321" />


    <route edges="C2C3 C3B3 B3B2 B2A2 A2A3" id="route322" />


    <route edges="D1D0 D0C0 C0B0 B0B1 B1B2 B2B3 B3C3" id="route323" />


    <route edges="D1D0 D0C0 C0C1 C1B1" id="route324" />


    <route edges="B3B2 B2C2 C2C3 C3B3 B3A3" id="route325" />


    <route edges="A3A2 A2A1 A1A0" id="route326" />


    <route edges="D2D3 D3C3 C3B3 B3B2" id="route327" />


    <route edges="D0D1 D1C1 C1B1 B1B2 B2B3" id="route328" />


    <route edges="A1A2 A2B2 B2C2 C2C1 C1D1" id="route329" />


    <route edges="A1A0 A0B0 B0B1 B1A1 A1A2 A2B2" id="route330" />


    <route edges="C1B1 B1B0" id="route331" />


    <route edges="D3D2 D2C2 C2B2 B2A2 A2A1" id="route332" />


    <route edges="C3C2 C2D2 D2D1 D1C1 C1C2" id="route333" />


    <route edges="C3D3 D3D2 D2D1 D1D0 D0C0 C0B0 B0A0" id="route334" />


    <route edges="C0C1 C1C2 C2C3 C3B3 B3A3" id="route335" />


    <route edges="B3A3 A3A2 A2A1 A1B1 B1C1 C1D1 D1D0" id="route336" />


    <route edges="D3D2 D2D1 D1C1 C1B1 B1B0" id="route337" />


    <route edges="C1C2" id="route338" />


    <route edges="C3B3 B3B2 B2C2 C2D2 D2D3" id="route339" />


    <route edges="A3B3 B3B2 B2B1 B1B0 B0A0" id="route340" />


    <route edges="C2B2 B2B1 B1A1 A1A2 A2B2" id="route341" />


    <route edges="A3A2 A2B2 B2B1 B1A1 A1A2" id="route342" />


    <route edges="A0A1 A1A2 A2B2 B2B3 B3A3" id="route343" />


    <route edges="C1C0 C0B0 B0B1 B1A1" id="route344" />


    <route edges="B0B1 B1B2 B2C2 C2C3" id="route345" />


    <route edges="C2C3 C3B3 B3A3" id="route346" />


    <route edges="C2C1 C1B1 B1B2 B2C2 C2D2 D2D1" id="route347" />


    <route edges="C3D3 D3D2 D2C2 C2C1 C1D1" id="route348" />


    <route edges="C2B2 B2B3 B3C3 C3D3 D3D2 D2D1" id="route349" />


    <route edges="B2C2 C2C1 C1C0 C0D0" id="route350" />


    <route edges="C2B2 B2B3 B3C3 C3D3 D3D2 D2C2" id="route351" />


    <route edges="D0D1 D1C1 C1B1 B1A1 A1A2" id="route352" />


    <route edges="A2B2 B2B1 B1B0" id="route353" />


    <route edges="C3B3 B3B2 B2C2 C2C1 C1B1" id="route354" />


    <route edges="B1A1 A1A2 A2A3 A3B3 B3B2 B2A2 A2A1" id="route355" />


    <route edges="C2C3" id="route356" />


    <route edges="D2D3 D3C3 C3C2 C2C1 C1C0 C0B0" id="route357" />


    <route edges="B3C3 C3C2 C2C1 C1B1 B1A1 A1A2" id="route358" />


    <route edges="A0B0 B0B1 B1B2 B2C2" id="route359" />


    <route edges="B1B2 B2C2 C2C1 C1B1 B1B0 B0C0" id="route360" />


    <route edges="A1B1 B1C1 C1D1 D1D2 D2D3 D3C3" id="route361" />


    <route edges="D1C1 C1B1" id="route362" />


    <route edges="D2D3 D3C3 C3C2 C2B2 B2B3 B3C3 C3D3 D3D2" id="route363" />


    <route edges="C2C1 C1B1 B1B0 B0C0" id="route364" />


    <route edges="A0B0 B0B1 B1B2 B2B3 B3C3 C3C2" id="route365" />


    <route edges="B3B2 B2B1 B1C1 C1C2 C2B2" id="route366" />


    <route edges="D2C2 C2B2 B2B3 B3A3 A3A2" id="route367" />


    <route edges="C1C0 C0B0 B0B1 B1C1 C1D1" id="route368" />


    <route edges="B3C3 C3C2 C2B2 B2A2 A2A1 A1B1" id="route369" />


    <route edges="B1C1 C1C0 C0B0 B0B1 B1B2" id="route370" />


    <route edges="C2C1 C1D1 D1D0" id="route371" />


    <route edges="B1B2 B2C2 C2C3" id="route372" />


    <route edges="B1A1 A1A2 A2B2 B2C2 C2D2 D2D3" id="route373" />


    <route edges="D0D1 D1C1 C1C0 C0D0" id="route374" />


    <route edges="B3A3 A3A2 A2A1 A1B1 B1B2" id="route375" />


    <route edges="B1B2 B2C2 C2D2 D2D3 D3C3" id="route376" />


    <route edges="B2B3 B3C3 C3C2 C2C1 C1C0 C0B0" id="route377" />


    <route edges="D3D2 D2C2 C2B2" id="route378" />


    <route edges="C0D0 D0D1 D1D2 D2C2 C2B2 B2B3" id="route379" />


    <route edges="A3B3 B3B2 B2A2" id="route380" />


    <route edges="C3C2 C2C1 C1D1" id="route381" />


    <route edges="C3C2 C2B2 B2A2 A2A3 A3B3" id="route382" />


    <route edges="C0D0 D0D1 D1C1 C1C2 C2D2 D2D1" id="route383" />


    <route edges="B3A3 A3A2 A2B2 B2C2 C2C3" id="route384" />


    <route edges="A2A1 A1B1 B1C1 C1D1 D1D2 D2D3 D3C3" id="route385" />


    <route edges="C1C2 C2D2 D2D1 D1D0 D0C0 C0B0 B0B1" id="route386" />


    <route edges="A2B2 B2C2 C2C1 C1C0 C0D0" id="route387" />


    <route edges="C0D0 D0D1 D1C1 C1B1 B1B0 B0A0 A0A1 A1B1" id="route388" />


    <route edges="D3D2 D2C2" id="route389" />


    <route edges="B3B2 B2A2 A2A1" id="route390" />


    <route edges="D0D1 D1C1 C1B1 B1B2 B2B3 B3C3" id="route391" />


    <route edges="C2D2 D2D1 D1D0 D0C0 C0B0" id="route392" />


    <route edges="B1A1 A1A2 A2B2 B2C2 C2D2 D2D1 D1C1" id="route393" />


    <route edges="D3D2 D2D1 D1D0 D0C0 C0B0 B0B1" id="route394" />


    <route edges="C0D0 D0D1 D1D2 D2C2 C2B2 B2B1" id="route395" />


    <route edges="D2D1 D1D0 D0C0 C0B0" id="route396" />


    <route edges="D1D2 D2C2 C2C1 C1D1 D1D0" id="route397" />


    <route edges="B1A1 A1A2 A2A3 A3B3 B3C3 C3D3" id="route398" />


    <route edges="B2B3 B3C3 C3D3 D3D2 D2D1" id="route399" />


    <route edges="C0B0 B0B1 B1C1 C1C0 C0D0 D0D1" id="route400" />
</routes>