<?xml version="1.0" encoding="UTF-8"?>

<!-- generated on 2024-05-14 14:45:18 by Eclipse SUMO netedit Version 1.20.0
<configuration xmlns:xsi="http://www.w3.org/2001/XMLSchema-instance" xsi:noNamespaceSchemaLocation="http://sumo.dlr.de/xsd/neteditConfiguration.xsd">

    <input>
        <sumo-net-file value="C:\Users\Denny\OneDrive\Università\Tirocinio\Progetti SUMO\Simulazioni ed esperimenti SUMO\sumo_xml_files\manhattan4x4_100pc\manhattan4x4_100pc.net.xml"/>
    </input>

    <output>
        <output-file value="C:\Users\Denny\OneDrive\Università\Tirocinio\Progetti SUMO\Simulazioni ed esperimenti SUMO\sumo_xml_files\manhattan4x4_100pc\manhattan4x4_100pc.net.xml"/>
    </output>

    <processing>
        <geometry.min-radius.fix.railways value="false"/>
        <geometry.max-grade.fix value="false"/>
        <offset.disable-normalization value="true"/>
        <lefthand value="0"/>
    </processing>

    <junctions>
        <no-turnarounds value="true"/>
        <junctions.corner-detail value="5"/>
        <junctions.limit-turn-speed value="5.50"/>
        <rectangular-lane-cut value="0"/>
    </junctions>

    <pedestrian>
        <walkingareas value="0"/>
    </pedestrian>

</configuration>
-->

<net version="1.20" junctionCornerDetail="5" limitTurnSpeed="5.50" xmlns:xsi="http://www.w3.org/2001/XMLSchema-instance" xsi:noNamespaceSchemaLocation="http://sumo.dlr.de/xsd/net_file.xsd">

    <location netOffset="0.00,0.00" convBoundary="0.00,0.00,480.00,480.00" origBoundary="0.00,0.00,480.00,480.00" projParameter="!"/>

    <edge id=":A0_0" function="internal">
        <lane id=":A0_0_0" index="0" speed="8.96" length="18.06" shape="-4.80,6.40 -4.10,1.50 -2.00,-2.00 1.50,-4.10 6.40,-4.80"/>
        <lane id=":A0_0_1" index="1" speed="7.66" length="12.90" shape="-1.60,6.40 -1.10,2.90 0.40,0.40 2.90,-1.10 6.40,-1.60"/>
    </edge>
    <edge id=":A0_2" function="internal">
        <lane id=":A0_2_0" index="0" speed="3.90" length="2.58" shape="6.40,4.80 5.70,4.90 5.20,5.20 4.90,5.70 4.80,6.40"/>
        <lane id=":A0_2_1" index="1" speed="6.08" length="7.74" shape="6.40,1.60 4.30,1.90 2.80,2.80 1.90,4.30 1.60,6.40"/>
    </edge>
    <edge id=":A1_0" function="internal">
        <lane id=":A1_0_0" index="0" speed="13.89" length="20.80" shape="-4.80,170.40 -4.80,149.60"/>
        <lane id=":A1_0_1" index="1" speed="13.89" length="20.80" shape="-1.60,170.40 -1.60,149.60"/>
    </edge>
    <edge id=":A1_2" function="internal">
        <lane id=":A1_2_0" index="0" speed="9.26" length="5.01" shape="-1.60,170.40 -0.89,165.44"/>
    </edge>
    <edge id=":A1_9" function="internal">
        <lane id=":A1_9_0" index="0" speed="9.26" length="14.34" shape="-0.89,165.44 -0.85,165.15 1.40,161.40 5.15,159.15 10.40,158.40"/>
    </edge>
    <edge id=":A1_3" function="internal">
        <lane id=":A1_3_0" index="0" speed="6.51" length="9.03" shape="10.40,164.80 7.95,165.15 6.20,166.20 5.15,167.95 4.80,170.40"/>
        <lane id=":A1_3_1" index="1" speed="8.00" length="14.19" shape="10.40,161.60 6.55,162.15 3.80,163.80 2.15,166.55 1.60,170.40"/>
    </edge>
    <edge id=":A1_5" function="internal">
        <lane id=":A1_5_0" index="0" speed="9.26" length="19.35" shape="10.40,161.60 5.15,160.85 1.40,158.60 -0.85,154.85 -1.60,149.60"/>
    </edge>
    <edge id=":A1_6" function="internal">
        <lane id=":A1_6_0" index="0" speed="6.51" length="9.03" shape="4.80,149.60 5.15,152.05 6.20,153.80 7.95,154.85 10.40,155.20"/>
    </edge>
    <edge id=":A1_7" function="internal">
        <lane id=":A1_7_0" index="0" speed="13.89" length="20.80" shape="4.80,149.60 4.80,170.40"/>
        <lane id=":A1_7_1" index="1" speed="13.89" length="20.80" shape="1.60,149.60 1.60,170.40"/>
    </edge>
    <edge id=":A2_0" function="internal">
        <lane id=":A2_0_0" index="0" speed="13.89" length="20.80" shape="-4.80,330.40 -4.80,309.60"/>
        <lane id=":A2_0_1" index="1" speed="13.89" length="20.80" shape="-1.60,330.40 -1.60,309.60"/>
    </edge>
    <edge id=":A2_2" function="internal">
        <lane id=":A2_2_0" index="0" speed="9.26" length="5.01" shape="-1.60,330.40 -0.89,325.44"/>
    </edge>
    <edge id=":A2_9" function="internal">
        <lane id=":A2_9_0" index="0" speed="9.26" length="14.34" shape="-0.89,325.44 -0.85,325.15 1.40,321.40 5.15,319.15 10.40,318.40"/>
    </edge>
    <edge id=":A2_3" function="internal">
        <lane id=":A2_3_0" index="0" speed="6.51" length="9.03" shape="10.40,324.80 7.95,325.15 6.20,326.20 5.15,327.95 4.80,330.40"/>
        <lane id=":A2_3_1" index="1" speed="8.00" length="14.19" shape="10.40,321.60 6.55,322.15 3.80,323.80 2.15,326.55 1.60,330.40"/>
    </edge>
    <edge id=":A2_5" function="internal">
        <lane id=":A2_5_0" index="0" speed="9.26" length="19.35" shape="10.40,321.60 5.15,320.85 1.40,318.60 -0.85,314.85 -1.60,309.60"/>
    </edge>
    <edge id=":A2_6" function="internal">
        <lane id=":A2_6_0" index="0" speed="6.51" length="9.03" shape="4.80,309.60 5.15,312.05 6.20,313.80 7.95,314.85 10.40,315.20"/>
    </edge>
    <edge id=":A2_7" function="internal">
        <lane id=":A2_7_0" index="0" speed="13.89" length="20.80" shape="4.80,309.60 4.80,330.40"/>
        <lane id=":A2_7_1" index="1" speed="13.89" length="20.80" shape="1.60,309.60 1.60,330.40"/>
    </edge>
    <edge id=":A3_0" function="internal">
        <lane id=":A3_0_0" index="0" speed="8.96" length="18.06" shape="6.40,484.80 1.50,484.10 -2.00,482.00 -4.10,478.50 -4.80,473.60"/>
        <lane id=":A3_0_1" index="1" speed="7.66" length="12.90" shape="6.40,481.60 2.90,481.10 0.40,479.60 -1.10,477.10 -1.60,473.60"/>
    </edge>
    <edge id=":A3_2" function="internal">
        <lane id=":A3_2_0" index="0" speed="3.90" length="2.58" shape="4.80,473.60 4.90,474.30 5.20,474.80 5.70,475.10 6.40,475.20"/>
        <lane id=":A3_2_1" index="1" speed="6.08" length="7.74" shape="1.60,473.60 1.90,475.70 2.80,477.20 4.30,478.10 6.40,478.40"/>
    </edge>
    <edge id=":B0_0" function="internal">
        <lane id=":B0_0_0" index="0" speed="6.51" length="9.03" shape="155.20,10.40 154.85,7.95 153.80,6.20 152.05,5.15 149.60,4.80"/>
        <lane id=":B0_0_1" index="1" speed="8.00" length="14.19" shape="158.40,10.40 157.85,6.55 156.20,3.80 153.45,2.15 149.60,1.60"/>
    </edge>
    <edge id=":B0_2" function="internal">
        <lane id=":B0_2_0" index="0" speed="9.26" length="19.35" shape="158.40,10.40 159.15,5.15 161.40,1.40 165.15,-0.85 170.40,-1.60"/>
    </edge>
    <edge id=":B0_3" function="internal">
        <lane id=":B0_3_0" index="0" speed="6.51" length="9.03" shape="170.40,4.80 167.95,5.15 166.20,6.20 165.15,7.95 164.80,10.40"/>
    </edge>
    <edge id=":B0_4" function="internal">
        <lane id=":B0_4_0" index="0" speed="13.89" length="20.80" shape="170.40,4.80 149.60,4.80"/>
        <lane id=":B0_4_1" index="1" speed="13.89" length="20.80" shape="170.40,1.60 149.60,1.60"/>
    </edge>
    <edge id=":B0_6" function="internal">
        <lane id=":B0_6_0" index="0" speed="13.89" length="20.80" shape="149.60,-4.80 170.40,-4.80"/>
        <lane id=":B0_6_1" index="1" speed="13.89" length="20.80" shape="149.60,-1.60 170.40,-1.60"/>
    </edge>
    <edge id=":B0_8" function="internal">
        <lane id=":B0_8_0" index="0" speed="9.26" length="5.01" shape="149.60,-1.60 154.56,-0.89"/>
    </edge>
    <edge id=":B0_9" function="internal">
        <lane id=":B0_9_0" index="0" speed="9.26" length="14.34" shape="154.56,-0.89 154.85,-0.85 158.60,1.40 160.85,5.15 161.60,10.40"/>
    </edge>
    <edge id=":B1_0" function="internal">
        <lane id=":B1_0_0" index="0" speed="6.51" length="9.03" shape="155.20,170.40 154.85,167.95 153.80,166.20 152.05,165.15 149.60,164.80"/>
    </edge>
    <edge id=":B1_1" function="internal">
        <lane id=":B1_1_0" index="0" speed="13.89" length="20.80" shape="155.20,170.40 155.20,149.60"/>
        <lane id=":B1_1_1" index="1" speed="13.89" length="20.80" shape="158.40,170.40 158.40,149.60"/>
    </edge>
    <edge id=":B1_3" function="internal">
        <lane id=":B1_3_0" index="0" speed="9.26" length="5.01" shape="158.40,170.40 159.11,165.44"/>
    </edge>
    <edge id=":B1_16" function="internal">
        <lane id=":B1_16_0" index="0" speed="9.26" length="14.34" shape="159.11,165.44 159.15,165.15 161.40,161.40 165.15,159.15 170.40,158.40"/>
    </edge>
    <edge id=":B1_4" function="internal">
        <lane id=":B1_4_0" index="0" speed="6.51" length="9.03" shape="170.40,164.80 167.95,165.15 166.20,166.20 165.15,167.95 164.80,170.40"/>
    </edge>
    <edge id=":B1_5" function="internal">
        <lane id=":B1_5_0" index="0" speed="13.89" length="20.80" shape="170.40,164.80 149.60,164.80"/>
        <lane id=":B1_5_1" index="1" speed="13.89" length="20.80" shape="170.40,161.60 149.60,161.60"/>
    </edge>
    <edge id=":B1_7" function="internal">
        <lane id=":B1_7_0" index="0" speed="9.26" length="5.01" shape="170.40,161.60 165.44,160.89"/>
    </edge>
    <edge id=":B1_17" function="internal">
        <lane id=":B1_17_0" index="0" speed="9.26" length="14.34" shape="165.44,160.89 165.15,160.85 161.40,158.60 159.15,154.85 158.40,149.60"/>
    </edge>
    <edge id=":B1_8" function="internal">
        <lane id=":B1_8_0" index="0" speed="6.51" length="9.03" shape="164.80,149.60 165.15,152.05 166.20,153.80 167.95,154.85 170.40,155.20"/>
    </edge>
    <edge id=":B1_9" function="internal">
        <lane id=":B1_9_0" index="0" speed="13.89" length="20.80" shape="164.80,149.60 164.80,170.40"/>
        <lane id=":B1_9_1" index="1" speed="13.89" length="20.80" shape="161.60,149.60 161.60,170.40"/>
    </edge>
    <edge id=":B1_11" function="internal">
        <lane id=":B1_11_0" index="0" speed="9.26" length="5.01" shape="161.60,149.60 160.89,154.56"/>
    </edge>
    <edge id=":B1_18" function="internal">
        <lane id=":B1_18_0" index="0" speed="9.26" length="14.34" shape="160.89,154.56 160.85,154.85 158.60,158.60 154.85,160.85 149.60,161.60"/>
    </edge>
    <edge id=":B1_12" function="internal">
        <lane id=":B1_12_0" index="0" speed="6.51" length="9.03" shape="149.60,155.20 152.05,154.85 153.80,153.80 154.85,152.05 155.20,149.60"/>
    </edge>
    <edge id=":B1_13" function="internal">
        <lane id=":B1_13_0" index="0" speed="13.89" length="20.80" shape="149.60,155.20 170.40,155.20"/>
        <lane id=":B1_13_1" index="1" speed="13.89" length="20.80" shape="149.60,158.40 170.40,158.40"/>
    </edge>
    <edge id=":B1_15" function="internal">
        <lane id=":B1_15_0" index="0" speed="9.26" length="5.01" shape="149.60,158.40 154.56,159.11"/>
    </edge>
    <edge id=":B1_19" function="internal">
        <lane id=":B1_19_0" index="0" speed="9.26" length="14.34" shape="154.56,159.11 154.85,159.15 158.60,161.40 160.85,165.15 161.60,170.40"/>
    </edge>
    <edge id=":B2_0" function="internal">
        <lane id=":B2_0_0" index="0" speed="6.51" length="9.03" shape="155.20,330.40 154.85,327.95 153.80,326.20 152.05,325.15 149.60,324.80"/>
    </edge>
    <edge id=":B2_1" function="internal">
        <lane id=":B2_1_0" index="0" speed="13.89" length="20.80" shape="155.20,330.40 155.20,309.60"/>
        <lane id=":B2_1_1" index="1" speed="13.89" length="20.80" shape="158.40,330.40 158.40,309.60"/>
    </edge>
    <edge id=":B2_3" function="internal">
        <lane id=":B2_3_0" index="0" speed="9.26" length="5.01" shape="158.40,330.40 159.11,325.44"/>
    </edge>
    <edge id=":B2_16" function="internal">
        <lane id=":B2_16_0" index="0" speed="9.26" length="14.34" shape="159.11,325.44 159.15,325.15 161.40,321.40 165.15,319.15 170.40,318.40"/>
    </edge>
    <edge id=":B2_4" function="internal">
        <lane id=":B2_4_0" index="0" speed="6.51" length="9.03" shape="170.40,324.80 167.95,325.15 166.20,326.20 165.15,327.95 164.80,330.40"/>
    </edge>
    <edge id=":B2_5" function="internal">
        <lane id=":B2_5_0" index="0" speed="13.89" length="20.80" shape="170.40,324.80 149.60,324.80"/>
        <lane id=":B2_5_1" index="1" speed="13.89" length="20.80" shape="170.40,321.60 149.60,321.60"/>
    </edge>
    <edge id=":B2_7" function="internal">
        <lane id=":B2_7_0" index="0" speed="9.26" length="5.01" shape="170.40,321.60 165.44,320.89"/>
    </edge>
    <edge id=":B2_17" function="internal">
        <lane id=":B2_17_0" index="0" speed="9.26" length="14.34" shape="165.44,320.89 165.15,320.85 161.40,318.60 159.15,314.85 158.40,309.60"/>
    </edge>
    <edge id=":B2_8" function="internal">
        <lane id=":B2_8_0" index="0" speed="6.51" length="9.03" shape="164.80,309.60 165.15,312.05 166.20,313.80 167.95,314.85 170.40,315.20"/>
    </edge>
    <edge id=":B2_9" function="internal">
        <lane id=":B2_9_0" index="0" speed="13.89" length="20.80" shape="164.80,309.60 164.80,330.40"/>
        <lane id=":B2_9_1" index="1" speed="13.89" length="20.80" shape="161.60,309.60 161.60,330.40"/>
    </edge>
    <edge id=":B2_11" function="internal">
        <lane id=":B2_11_0" index="0" speed="9.26" length="5.01" shape="161.60,309.60 160.89,314.56"/>
    </edge>
    <edge id=":B2_18" function="internal">
        <lane id=":B2_18_0" index="0" speed="9.26" length="14.34" shape="160.89,314.56 160.85,314.85 158.60,318.60 154.85,320.85 149.60,321.60"/>
    </edge>
    <edge id=":B2_12" function="internal">
        <lane id=":B2_12_0" index="0" speed="6.51" length="9.03" shape="149.60,315.20 152.05,314.85 153.80,313.80 154.85,312.05 155.20,309.60"/>
    </edge>
    <edge id=":B2_13" function="internal">
        <lane id=":B2_13_0" index="0" speed="13.89" length="20.80" shape="149.60,315.20 170.40,315.20"/>
        <lane id=":B2_13_1" index="1" speed="13.89" length="20.80" shape="149.60,318.40 170.40,318.40"/>
    </edge>
    <edge id=":B2_15" function="internal">
        <lane id=":B2_15_0" index="0" speed="9.26" length="5.01" shape="149.60,318.40 154.56,319.11"/>
    </edge>
    <edge id=":B2_19" function="internal">
        <lane id=":B2_19_0" index="0" speed="9.26" length="14.34" shape="154.56,319.11 154.85,319.15 158.60,321.40 160.85,325.15 161.60,330.40"/>
    </edge>
    <edge id=":B3_0" function="internal">
        <lane id=":B3_0_0" index="0" speed="13.89" length="20.80" shape="170.40,484.80 149.60,484.80"/>
        <lane id=":B3_0_1" index="1" speed="13.89" length="20.80" shape="170.40,481.60 149.60,481.60"/>
    </edge>
    <edge id=":B3_2" function="internal">
        <lane id=":B3_2_0" index="0" speed="9.26" length="5.01" shape="170.40,481.60 165.44,480.89"/>
    </edge>
    <edge id=":B3_9" function="internal">
        <lane id=":B3_9_0" index="0" speed="9.26" length="14.34" shape="165.44,480.89 165.15,480.85 161.40,478.60 159.15,474.85 158.40,469.60"/>
    </edge>
    <edge id=":B3_3" function="internal">
        <lane id=":B3_3_0" index="0" speed="6.51" length="9.03" shape="164.80,469.60 165.15,472.05 166.20,473.80 167.95,474.85 170.40,475.20"/>
        <lane id=":B3_3_1" index="1" speed="8.00" length="14.19" shape="161.60,469.60 162.15,473.45 163.80,476.20 166.55,477.85 170.40,478.40"/>
    </edge>
    <edge id=":B3_5" function="internal">
        <lane id=":B3_5_0" index="0" speed="9.26" length="19.35" shape="161.60,469.60 160.85,474.85 158.60,478.60 154.85,480.85 149.60,481.60"/>
    </edge>
    <edge id=":B3_6" function="internal">
        <lane id=":B3_6_0" index="0" speed="6.51" length="9.03" shape="149.60,475.20 152.05,474.85 153.80,473.80 154.85,472.05 155.20,469.60"/>
    </edge>
    <edge id=":B3_7" function="internal">
        <lane id=":B3_7_0" index="0" speed="13.89" length="20.80" shape="149.60,475.20 170.40,475.20"/>
        <lane id=":B3_7_1" index="1" speed="13.89" length="20.80" shape="149.60,478.40 170.40,478.40"/>
    </edge>
    <edge id=":C0_0" function="internal">
        <lane id=":C0_0_0" index="0" speed="6.51" length="9.03" shape="315.20,10.40 314.85,7.95 313.80,6.20 312.05,5.15 309.60,4.80"/>
        <lane id=":C0_0_1" index="1" speed="8.00" length="14.19" shape="318.40,10.40 317.85,6.55 316.20,3.80 313.45,2.15 309.60,1.60"/>
    </edge>
    <edge id=":C0_2" function="internal">
        <lane id=":C0_2_0" index="0" speed="9.26" length="19.35" shape="318.40,10.40 319.15,5.15 321.40,1.40 325.15,-0.85 330.40,-1.60"/>
    </edge>
    <edge id=":C0_3" function="internal">
        <lane id=":C0_3_0" index="0" speed="6.51" length="9.03" shape="330.40,4.80 327.95,5.15 326.20,6.20 325.15,7.95 324.80,10.40"/>
    </edge>
    <edge id=":C0_4" function="internal">
        <lane id=":C0_4_0" index="0" speed="13.89" length="20.80" shape="330.40,4.80 309.60,4.80"/>
        <lane id=":C0_4_1" index="1" speed="13.89" length="20.80" shape="330.40,1.60 309.60,1.60"/>
    </edge>
    <edge id=":C0_6" function="internal">
        <lane id=":C0_6_0" index="0" speed="13.89" length="20.80" shape="309.60,-4.80 330.40,-4.80"/>
        <lane id=":C0_6_1" index="1" speed="13.89" length="20.80" shape="309.60,-1.60 330.40,-1.60"/>
    </edge>
    <edge id=":C0_8" function="internal">
        <lane id=":C0_8_0" index="0" speed="9.26" length="5.01" shape="309.60,-1.60 314.56,-0.89"/>
    </edge>
    <edge id=":C0_9" function="internal">
        <lane id=":C0_9_0" index="0" speed="9.26" length="14.34" shape="314.56,-0.89 314.85,-0.85 318.60,1.40 320.85,5.15 321.60,10.40"/>
    </edge>
    <edge id=":C1_0" function="internal">
        <lane id=":C1_0_0" index="0" speed="6.51" length="9.03" shape="315.20,170.40 314.85,167.95 313.80,166.20 312.05,165.15 309.60,164.80"/>
    </edge>
    <edge id=":C1_1" function="internal">
        <lane id=":C1_1_0" index="0" speed="13.89" length="20.80" shape="315.20,170.40 315.20,149.60"/>
        <lane id=":C1_1_1" index="1" speed="13.89" length="20.80" shape="318.40,170.40 318.40,149.60"/>
    </edge>
    <edge id=":C1_3" function="internal">
        <lane id=":C1_3_0" index="0" speed="9.26" length="5.01" shape="318.40,170.40 319.11,165.44"/>
    </edge>
    <edge id=":C1_16" function="internal">
        <lane id=":C1_16_0" index="0" speed="9.26" length="14.34" shape="319.11,165.44 319.15,165.15 321.40,161.40 325.15,159.15 330.40,158.40"/>
    </edge>
    <edge id=":C1_4" function="internal">
        <lane id=":C1_4_0" index="0" speed="6.51" length="9.03" shape="330.40,164.80 327.95,165.15 326.20,166.20 325.15,167.95 324.80,170.40"/>
    </edge>
    <edge id=":C1_5" function="internal">
        <lane id=":C1_5_0" index="0" speed="13.89" length="20.80" shape="330.40,164.80 309.60,164.80"/>
        <lane id=":C1_5_1" index="1" speed="13.89" length="20.80" shape="330.40,161.60 309.60,161.60"/>
    </edge>
    <edge id=":C1_7" function="internal">
        <lane id=":C1_7_0" index="0" speed="9.26" length="5.01" shape="330.40,161.60 325.44,160.89"/>
    </edge>
    <edge id=":C1_17" function="internal">
        <lane id=":C1_17_0" index="0" speed="9.26" length="14.34" shape="325.44,160.89 325.15,160.85 321.40,158.60 319.15,154.85 318.40,149.60"/>
    </edge>
    <edge id=":C1_8" function="internal">
        <lane id=":C1_8_0" index="0" speed="6.51" length="9.03" shape="324.80,149.60 325.15,152.05 326.20,153.80 327.95,154.85 330.40,155.20"/>
    </edge>
    <edge id=":C1_9" function="internal">
        <lane id=":C1_9_0" index="0" speed="13.89" length="20.80" shape="324.80,149.60 324.80,170.40"/>
        <lane id=":C1_9_1" index="1" speed="13.89" length="20.80" shape="321.60,149.60 321.60,170.40"/>
    </edge>
    <edge id=":C1_11" function="internal">
        <lane id=":C1_11_0" index="0" speed="9.26" length="5.01" shape="321.60,149.60 320.89,154.56"/>
    </edge>
    <edge id=":C1_18" function="internal">
        <lane id=":C1_18_0" index="0" speed="9.26" length="14.34" shape="320.89,154.56 320.85,154.85 318.60,158.60 314.85,160.85 309.60,161.60"/>
    </edge>
    <edge id=":C1_12" function="internal">
        <lane id=":C1_12_0" index="0" speed="6.51" length="9.03" shape="309.60,155.20 312.05,154.85 313.80,153.80 314.85,152.05 315.20,149.60"/>
    </edge>
    <edge id=":C1_13" function="internal">
        <lane id=":C1_13_0" index="0" speed="13.89" length="20.80" shape="309.60,155.20 330.40,155.20"/>
        <lane id=":C1_13_1" index="1" speed="13.89" length="20.80" shape="309.60,158.40 330.40,158.40"/>
    </edge>
    <edge id=":C1_15" function="internal">
        <lane id=":C1_15_0" index="0" speed="9.26" length="5.01" shape="309.60,158.40 314.56,159.11"/>
    </edge>
    <edge id=":C1_19" function="internal">
        <lane id=":C1_19_0" index="0" speed="9.26" length="14.34" shape="314.56,159.11 314.85,159.15 318.60,161.40 320.85,165.15 321.60,170.40"/>
    </edge>
    <edge id=":C2_0" function="internal">
        <lane id=":C2_0_0" index="0" speed="6.51" length="9.03" shape="315.20,330.40 314.85,327.95 313.80,326.20 312.05,325.15 309.60,324.80"/>
    </edge>
    <edge id=":C2_1" function="internal">
        <lane id=":C2_1_0" index="0" speed="13.89" length="20.80" shape="315.20,330.40 315.20,309.60"/>
        <lane id=":C2_1_1" index="1" speed="13.89" length="20.80" shape="318.40,330.40 318.40,309.60"/>
    </edge>
    <edge id=":C2_3" function="internal">
        <lane id=":C2_3_0" index="0" speed="9.26" length="5.01" shape="318.40,330.40 319.11,325.44"/>
    </edge>
    <edge id=":C2_16" function="internal">
        <lane id=":C2_16_0" index="0" speed="9.26" length="14.34" shape="319.11,325.44 319.15,325.15 321.40,321.40 325.15,319.15 330.40,318.40"/>
    </edge>
    <edge id=":C2_4" function="internal">
        <lane id=":C2_4_0" index="0" speed="6.51" length="9.03" shape="330.40,324.80 327.95,325.15 326.20,326.20 325.15,327.95 324.80,330.40"/>
    </edge>
    <edge id=":C2_5" function="internal">
        <lane id=":C2_5_0" index="0" speed="13.89" length="20.80" shape="330.40,324.80 309.60,324.80"/>
        <lane id=":C2_5_1" index="1" speed="13.89" length="20.80" shape="330.40,321.60 309.60,321.60"/>
    </edge>
    <edge id=":C2_7" function="internal">
        <lane id=":C2_7_0" index="0" speed="9.26" length="5.01" shape="330.40,321.60 325.44,320.89"/>
    </edge>
    <edge id=":C2_17" function="internal">
        <lane id=":C2_17_0" index="0" speed="9.26" length="14.34" shape="325.44,320.89 325.15,320.85 321.40,318.60 319.15,314.85 318.40,309.60"/>
    </edge>
    <edge id=":C2_8" function="internal">
        <lane id=":C2_8_0" index="0" speed="6.51" length="9.03" shape="324.80,309.60 325.15,312.05 326.20,313.80 327.95,314.85 330.40,315.20"/>
    </edge>
    <edge id=":C2_9" function="internal">
        <lane id=":C2_9_0" index="0" speed="13.89" length="20.80" shape="324.80,309.60 324.80,330.40"/>
        <lane id=":C2_9_1" index="1" speed="13.89" length="20.80" shape="321.60,309.60 321.60,330.40"/>
    </edge>
    <edge id=":C2_11" function="internal">
        <lane id=":C2_11_0" index="0" speed="9.26" length="5.01" shape="321.60,309.60 320.89,314.56"/>
    </edge>
    <edge id=":C2_18" function="internal">
        <lane id=":C2_18_0" index="0" speed="9.26" length="14.34" shape="320.89,314.56 320.85,314.85 318.60,318.60 314.85,320.85 309.60,321.60"/>
    </edge>
    <edge id=":C2_12" function="internal">
        <lane id=":C2_12_0" index="0" speed="6.51" length="9.03" shape="309.60,315.20 312.05,314.85 313.80,313.80 314.85,312.05 315.20,309.60"/>
    </edge>
    <edge id=":C2_13" function="internal">
        <lane id=":C2_13_0" index="0" speed="13.89" length="20.80" shape="309.60,315.20 330.40,315.20"/>
        <lane id=":C2_13_1" index="1" speed="13.89" length="20.80" shape="309.60,318.40 330.40,318.40"/>
    </edge>
    <edge id=":C2_15" function="internal">
        <lane id=":C2_15_0" index="0" speed="9.26" length="5.01" shape="309.60,318.40 314.56,319.11"/>
    </edge>
    <edge id=":C2_19" function="internal">
        <lane id=":C2_19_0" index="0" speed="9.26" length="14.34" shape="314.56,319.11 314.85,319.15 318.60,321.40 320.85,325.15 321.60,330.40"/>
    </edge>
    <edge id=":C3_0" function="internal">
        <lane id=":C3_0_0" index="0" speed="13.89" length="20.80" shape="330.40,484.80 309.60,484.80"/>
        <lane id=":C3_0_1" index="1" speed="13.89" length="20.80" shape="330.40,481.60 309.60,481.60"/>
    </edge>
    <edge id=":C3_2" function="internal">
        <lane id=":C3_2_0" index="0" speed="9.26" length="5.01" shape="330.40,481.60 325.44,480.89"/>
    </edge>
    <edge id=":C3_9" function="internal">
        <lane id=":C3_9_0" index="0" speed="9.26" length="14.34" shape="325.44,480.89 325.15,480.85 321.40,478.60 319.15,474.85 318.40,469.60"/>
    </edge>
    <edge id=":C3_3" function="internal">
        <lane id=":C3_3_0" index="0" speed="6.51" length="9.03" shape="324.80,469.60 325.15,472.05 326.20,473.80 327.95,474.85 330.40,475.20"/>
        <lane id=":C3_3_1" index="1" speed="8.00" length="14.19" shape="321.60,469.60 322.15,473.45 323.80,476.20 326.55,477.85 330.40,478.40"/>
    </edge>
    <edge id=":C3_5" function="internal">
        <lane id=":C3_5_0" index="0" speed="9.26" length="19.35" shape="321.60,469.60 320.85,474.85 318.60,478.60 314.85,480.85 309.60,481.60"/>
    </edge>
    <edge id=":C3_6" function="internal">
        <lane id=":C3_6_0" index="0" speed="6.51" length="9.03" shape="309.60,475.20 312.05,474.85 313.80,473.80 314.85,472.05 315.20,469.60"/>
    </edge>
    <edge id=":C3_7" function="internal">
        <lane id=":C3_7_0" index="0" speed="13.89" length="20.80" shape="309.60,475.20 330.40,475.20"/>
        <lane id=":C3_7_1" index="1" speed="13.89" length="20.80" shape="309.60,478.40 330.40,478.40"/>
    </edge>
    <edge id=":D0_0" function="internal">
        <lane id=":D0_0_0" index="0" speed="3.90" length="2.58" shape="475.20,6.40 475.10,5.70 474.80,5.20 474.30,4.90 473.60,4.80"/>
        <lane id=":D0_0_1" index="1" speed="6.08" length="7.74" shape="478.40,6.40 478.10,4.30 477.20,2.80 475.70,1.90 473.60,1.60"/>
    </edge>
    <edge id=":D0_2" function="internal">
        <lane id=":D0_2_0" index="0" speed="8.96" length="18.06" shape="473.60,-4.80 478.50,-4.10 482.00,-2.00 484.10,1.50 484.80,6.40"/>
        <lane id=":D0_2_1" index="1" speed="7.66" length="12.90" shape="473.60,-1.60 477.10,-1.10 479.60,0.40 481.10,2.90 481.60,6.40"/>
    </edge>
    <edge id=":D1_0" function="internal">
        <lane id=":D1_0_0" index="0" speed="6.51" length="9.03" shape="475.20,170.40 474.85,167.95 473.80,166.20 472.05,165.15 469.60,164.80"/>
    </edge>
    <edge id=":D1_1" function="internal">
        <lane id=":D1_1_0" index="0" speed="13.89" length="20.80" shape="475.20,170.40 475.20,149.60"/>
        <lane id=":D1_1_1" index="1" speed="13.89" length="20.80" shape="478.40,170.40 478.40,149.60"/>
    </edge>
    <edge id=":D1_3" function="internal">
        <lane id=":D1_3_0" index="0" speed="13.89" length="20.80" shape="484.80,149.60 484.80,170.40"/>
        <lane id=":D1_3_1" index="1" speed="13.89" length="20.80" shape="481.60,149.60 481.60,170.40"/>
    </edge>
    <edge id=":D1_5" function="internal">
        <lane id=":D1_5_0" index="0" speed="9.26" length="5.01" shape="481.60,149.60 480.89,154.56"/>
    </edge>
    <edge id=":D1_9" function="internal">
        <lane id=":D1_9_0" index="0" speed="9.26" length="14.34" shape="480.89,154.56 480.85,154.85 478.60,158.60 474.85,160.85 469.60,161.60"/>
    </edge>
    <edge id=":D1_6" function="internal">
        <lane id=":D1_6_0" index="0" speed="6.51" length="9.03" shape="469.60,155.20 472.05,154.85 473.80,153.80 474.85,152.05 475.20,149.60"/>
        <lane id=":D1_6_1" index="1" speed="8.00" length="14.19" shape="469.60,158.40 473.45,157.85 476.20,156.20 477.85,153.45 478.40,149.60"/>
    </edge>
    <edge id=":D1_8" function="internal">
        <lane id=":D1_8_0" index="0" speed="9.26" length="19.35" shape="469.60,158.40 474.85,159.15 478.60,161.40 480.85,165.15 481.60,170.40"/>
    </edge>
    <edge id=":D2_0" function="internal">
        <lane id=":D2_0_0" index="0" speed="6.51" length="9.03" shape="475.20,330.40 474.85,327.95 473.80,326.20 472.05,325.15 469.60,324.80"/>
    </edge>
    <edge id=":D2_1" function="internal">
        <lane id=":D2_1_0" index="0" speed="13.89" length="20.80" shape="475.20,330.40 475.20,309.60"/>
        <lane id=":D2_1_1" index="1" speed="13.89" length="20.80" shape="478.40,330.40 478.40,309.60"/>
    </edge>
    <edge id=":D2_3" function="internal">
        <lane id=":D2_3_0" index="0" speed="13.89" length="20.80" shape="484.80,309.60 484.80,330.40"/>
        <lane id=":D2_3_1" index="1" speed="13.89" length="20.80" shape="481.60,309.60 481.60,330.40"/>
    </edge>
    <edge id=":D2_5" function="internal">
        <lane id=":D2_5_0" index="0" speed="9.26" length="5.01" shape="481.60,309.60 480.89,314.56"/>
    </edge>
    <edge id=":D2_9" function="internal">
        <lane id=":D2_9_0" index="0" speed="9.26" length="14.34" shape="480.89,314.56 480.85,314.85 478.60,318.60 474.85,320.85 469.60,321.60"/>
    </edge>
    <edge id=":D2_6" function="internal">
        <lane id=":D2_6_0" index="0" speed="6.51" length="9.03" shape="469.60,315.20 472.05,314.85 473.80,313.80 474.85,312.05 475.20,309.60"/>
        <lane id=":D2_6_1" index="1" speed="8.00" length="14.19" shape="469.60,318.40 473.45,317.85 476.20,316.20 477.85,313.45 478.40,309.60"/>
    </edge>
    <edge id=":D2_8" function="internal">
        <lane id=":D2_8_0" index="0" speed="9.26" length="19.35" shape="469.60,318.40 474.85,319.15 478.60,321.40 480.85,325.15 481.60,330.40"/>
    </edge>
    <edge id=":D3_0" function="internal">
        <lane id=":D3_0_0" index="0" speed="8.96" length="18.06" shape="484.80,473.60 484.10,478.50 482.00,482.00 478.50,484.10 473.60,484.80"/>
        <lane id=":D3_0_1" index="1" speed="7.66" length="12.90" shape="481.60,473.60 481.10,477.10 479.60,479.60 477.10,481.10 473.60,481.60"/>
    </edge>
    <edge id=":D3_2" function="internal">
        <lane id=":D3_2_0" index="0" speed="3.90" length="2.58" shape="473.60,475.20 474.30,475.10 474.80,474.80 475.10,474.30 475.20,473.60"/>
        <lane id=":D3_2_1" index="1" speed="6.08" length="7.74" shape="473.60,478.40 475.70,478.10 477.20,477.20 478.10,475.70 478.40,473.60"/>
    </edge>
