<?xml version="1.0" ?>
<routes>
    <route id="route1" edges="E1 -E2"/>
    <route id="route2" edges="E1 -E3"/>
    <route id="route3" edges="E1 -E4"/>
    <route id="route4" edges="E2 -E1"/>
    <route id="route5" edges="E2 -E3"/>
    <route id="route6" edges="E2 -E4"/>
    <route id="route7" edges="E3 -E1"/>
    <route id="route8" edges="E3 -E2"/>
    <route id="route9" edges="E3 -E4"/>
    <route id="route10" edges="E4 -E1"/>
    <route id="route11" edges="E4 -E2"/>
    <route id="route12" edges="E4 -E3"/>

    <vType id="vt1"/>
    <vehicle id="v1" type="vt1" route="route1" depart="0"/>
    <vehicle id="v2" type="vt1" route="route2" depart="0"/>
    <vehicle id="v3" type="vt1" route="route3" depart="0"/>
    <vehicle id="v4" type="vt1" route="route4" depart="0"/>
    <vehicle id="v5" type="vt1" route="route5" depart="0"/>
    <vehicle id="v6" type="vt1" route="route6" depart="0"/>
    <vehicle id="v7" type="vt1" route="route7" depart="0"/>
    <vehicle id="v8" type="vt1" route="route8" depart="0"/>
    <vehicle id="v9" type="vt1" route="route9" depart="0"/>
    <vehicle id="v10" type="vt1" route="route10" depart="0"/>
    <vehicle id="v11" type="vt1" route="route11" depart="0"/>
    <vehicle id="v12" type="vt1" route="route12" depart="0"/>

</routes>
