<?xml version="1.0" ?>

<routes>
    <route id="route1" edges="bottom0A0 C2top2"/>
</routes>
