<?xml version="1.0" encoding="UTF-8"?>

<!-- generated on 2024-05-08 12:04:43 by Eclipse SUMO netgenerate Version 1.19.0
<configuration xmlns:xsi="http://www.w3.org/2001/XMLSchema-instance" xsi:noNamespaceSchemaLocation="http://sumo.dlr.de/xsd/netgenerateConfiguration.xsd">

    <grid_network>
        <grid value="true"/>
        <grid.number value="3"/>
        <grid.length value="160"/>
        <grid.x-number value="3"/>
        <grid.y-number value="3"/>
    </grid_network>

    <spider_network>
        <spider value="false"/>
    </spider_network>

    <random_network>
        <rand value="false"/>
        <rand.grid value="false"/>
    </random_network>

    <output>
        <output-file value="manhattan3x3_100pc.net.xml"/>
    </output>

    <processing>
        <numerical-ids value="true"/>
        <numerical-ids.node-start value="0"/>
        <numerical-ids.edge-start value="1"/>
    </processing>

    <building_defaults>
        <default.lanenumber value="2"/>
        <default-junction-type value="traffic_light"/>
    </building_defaults>

    <junctions>
        <no-turnarounds value="true"/>
        <no-turnarounds.tls value="true"/>
    </junctions>

</configuration>
-->

<net version="1.16" junctionCornerDetail="5" limitTurnSpeed="5.50" xmlns:xsi="http://www.w3.org/2001/XMLSchema-instance" xsi:noNamespaceSchemaLocation="http://sumo.dlr.de/xsd/net_file.xsd">

    <location netOffset="0.00,0.00" convBoundary="0.00,0.00,320.00,320.00" origBoundary="0.00,0.00,320.00,320.00" projParameter="!"/>

    <edge id=":0_0" function="internal">
        <lane id=":0_0_0" index="0" speed="8.96" length="18.06" shape="-4.80,6.40 -4.10,1.50 -2.00,-2.00 1.50,-4.10 6.40,-4.80"/>
        <lane id=":0_0_1" index="1" speed="7.66" length="12.90" shape="-1.60,6.40 -1.10,2.90 0.40,0.40 2.90,-1.10 6.40,-1.60"/>
    </edge>
    <edge id=":0_2" function="internal">
        <lane id=":0_2_0" index="0" speed="3.90" length="2.58" shape="6.40,4.80 5.70,4.90 5.20,5.20 4.90,5.70 4.80,6.40"/>
        <lane id=":0_2_1" index="1" speed="6.08" length="7.74" shape="6.40,1.60 4.30,1.90 2.80,2.80 1.90,4.30 1.60,6.40"/>
    </edge>
    <edge id=":1_0" function="internal">
        <lane id=":1_0_0" index="0" speed="13.89" length="20.80" shape="-4.80,170.40 -4.80,149.60"/>
        <lane id=":1_0_1" index="1" speed="13.89" length="20.80" shape="-1.60,170.40 -1.60,149.60"/>
    </edge>
    <edge id=":1_2" function="internal">
        <lane id=":1_2_0" index="0" speed="9.26" length="5.01" shape="-1.60,170.40 -0.89,165.44"/>
    </edge>
    <edge id=":1_9" function="internal">
        <lane id=":1_9_0" index="0" speed="9.26" length="14.34" shape="-0.89,165.44 -0.85,165.15 1.40,161.40 5.15,159.15 10.40,158.40"/>
    </edge>
    <edge id=":1_3" function="internal">
        <lane id=":1_3_0" index="0" speed="6.51" length="9.03" shape="10.40,164.80 7.95,165.15 6.20,166.20 5.15,167.95 4.80,170.40"/>
        <lane id=":1_3_1" index="1" speed="8.00" length="14.19" shape="10.40,161.60 6.55,162.15 3.80,163.80 2.15,166.55 1.60,170.40"/>
    </edge>
    <edge id=":1_5" function="internal">
        <lane id=":1_5_0" index="0" speed="9.26" length="19.35" shape="10.40,161.60 5.15,160.85 1.40,158.60 -0.85,154.85 -1.60,149.60"/>
    </edge>
    <edge id=":1_6" function="internal">
        <lane id=":1_6_0" index="0" speed="6.51" length="9.03" shape="4.80,149.60 5.15,152.05 6.20,153.80 7.95,154.85 10.40,155.20"/>
    </edge>
    <edge id=":1_7" function="internal">
        <lane id=":1_7_0" index="0" speed="13.89" length="20.80" shape="4.80,149.60 4.80,170.40"/>
        <lane id=":1_7_1" index="1" speed="13.89" length="20.80" shape="1.60,149.60 1.60,170.40"/>
    </edge>
    <edge id=":2_0" function="internal">
        <lane id=":2_0_0" index="0" speed="8.96" length="18.06" shape="6.40,324.80 1.50,324.10 -2.00,322.00 -4.10,318.50 -4.80,313.60"/>
        <lane id=":2_0_1" index="1" speed="7.66" length="12.90" shape="6.40,321.60 2.90,321.10 0.40,319.60 -1.10,317.10 -1.60,313.60"/>
    </edge>
    <edge id=":2_2" function="internal">
        <lane id=":2_2_0" index="0" speed="3.90" length="2.58" shape="4.80,313.60 4.90,314.30 5.20,314.80 5.70,315.10 6.40,315.20"/>
        <lane id=":2_2_1" index="1" speed="6.08" length="7.74" shape="1.60,313.60 1.90,315.70 2.80,317.20 4.30,318.10 6.40,318.40"/>
    </edge>
    <edge id=":3_0" function="internal">
        <lane id=":3_0_0" index="0" speed="6.51" length="9.03" shape="155.20,10.40 154.85,7.95 153.80,6.20 152.05,5.15 149.60,4.80"/>
        <lane id=":3_0_1" index="1" speed="8.00" length="14.19" shape="158.40,10.40 157.85,6.55 156.20,3.80 153.45,2.15 149.60,1.60"/>
    </edge>
    <edge id=":3_2" function="internal">
        <lane id=":3_2_0" index="0" speed="9.26" length="19.35" shape="158.40,10.40 159.15,5.15 161.40,1.40 165.15,-0.85 170.40,-1.60"/>
    </edge>
    <edge id=":3_3" function="internal">
        <lane id=":3_3_0" index="0" speed="6.51" length="9.03" shape="170.40,4.80 167.95,5.15 166.20,6.20 165.15,7.95 164.80,10.40"/>
    </edge>
    <edge id=":3_4" function="internal">
        <lane id=":3_4_0" index="0" speed="13.89" length="20.80" shape="170.40,4.80 149.60,4.80"/>
        <lane id=":3_4_1" index="1" speed="13.89" length="20.80" shape="170.40,1.60 149.60,1.60"/>
    </edge>
    <edge id=":3_6" function="internal">
        <lane id=":3_6_0" index="0" speed="13.89" length="20.80" shape="149.60,-4.80 170.40,-4.80"/>
        <lane id=":3_6_1" index="1" speed="13.89" length="20.80" shape="149.60,-1.60 170.40,-1.60"/>
    </edge>
    <edge id=":3_8" function="internal">
        <lane id=":3_8_0" index="0" speed="9.26" length="5.01" shape="149.60,-1.60 154.56,-0.89"/>
    </edge>
    <edge id=":3_9" function="internal">
        <lane id=":3_9_0" index="0" speed="9.26" length="14.34" shape="154.56,-0.89 154.85,-0.85 158.60,1.40 160.85,5.15 161.60,10.40"/>
    </edge>
    <edge id=":4_0" function="internal">
        <lane id=":4_0_0" index="0" speed="6.51" length="9.03" shape="155.20,170.40 154.85,167.95 153.80,166.20 152.05,165.15 149.60,164.80"/>
    </edge>
    <edge id=":4_1" function="internal">
        <lane id=":4_1_0" index="0" speed="13.89" length="20.80" shape="155.20,170.40 155.20,149.60"/>
        <lane id=":4_1_1" index="1" speed="13.89" length="20.80" shape="158.40,170.40 158.40,149.60"/>
    </edge>
    <edge id=":4_3" function="internal">
        <lane id=":4_3_0" index="0" speed="9.26" length="5.01" shape="158.40,170.40 159.11,165.44"/>
    </edge>
    <edge id=":4_16" function="internal">
        <lane id=":4_16_0" index="0" speed="9.26" length="14.34" shape="159.11,165.44 159.15,165.15 161.40,161.40 165.15,159.15 170.40,158.40"/>
    </edge>
    <edge id=":4_4" function="internal">
        <lane id=":4_4_0" index="0" speed="6.51" length="9.03" shape="170.40,164.80 167.95,165.15 166.20,166.20 165.15,167.95 164.80,170.40"/>
    </edge>
    <edge id=":4_5" function="internal">
        <lane id=":4_5_0" index="0" speed="13.89" length="20.80" shape="170.40,164.80 149.60,164.80"/>
        <lane id=":4_5_1" index="1" speed="13.89" length="20.80" shape="170.40,161.60 149.60,161.60"/>
    </edge>
    <edge id=":4_7" function="internal">
        <lane id=":4_7_0" index="0" speed="9.26" length="5.01" shape="170.40,161.60 165.44,160.89"/>
    </edge>
    <edge id=":4_17" function="internal">
        <lane id=":4_17_0" index="0" speed="9.26" length="14.34" shape="165.44,160.89 165.15,160.85 161.40,158.60 159.15,154.85 158.40,149.60"/>
    </edge>
    <edge id=":4_8" function="internal">
        <lane id=":4_8_0" index="0" speed="6.51" length="9.03" shape="164.80,149.60 165.15,152.05 166.20,153.80 167.95,154.85 170.40,155.20"/>
    </edge>
    <edge id=":4_9" function="internal">
        <lane id=":4_9_0" index="0" speed="13.89" length="20.80" shape="164.80,149.60 164.80,170.40"/>
        <lane id=":4_9_1" index="1" speed="13.89" length="20.80" shape="161.60,149.60 161.60,170.40"/>
    </edge>
    <edge id=":4_11" function="internal">
        <lane id=":4_11_0" index="0" speed="9.26" length="5.01" shape="161.60,149.60 160.89,154.56"/>
    </edge>
    <edge id=":4_18" function="internal">
        <lane id=":4_18_0" index="0" speed="9.26" length="14.34" shape="160.89,154.56 160.85,154.85 158.60,158.60 154.85,160.85 149.60,161.60"/>
    </edge>
    <edge id=":4_12" function="internal">
        <lane id=":4_12_0" index="0" speed="6.51" length="9.03" shape="149.60,155.20 152.05,154.85 153.80,153.80 154.85,152.05 155.20,149.60"/>
    </edge>
    <edge id=":4_13" function="internal">
        <lane id=":4_13_0" index="0" speed="13.89" length="20.80" shape="149.60,155.20 170.40,155.20"/>
        <lane id=":4_13_1" index="1" speed="13.89" length="20.80" shape="149.60,158.40 170.40,158.40"/>
    </edge>
    <edge id=":4_15" function="internal">
        <lane id=":4_15_0" index="0" speed="9.26" length="5.01" shape="149.60,158.40 154.56,159.11"/>
    </edge>
    <edge id=":4_19" function="internal">
        <lane id=":4_19_0" index="0" speed="9.26" length="14.34" shape="154.56,159.11 154.85,159.15 158.60,161.40 160.85,165.15 161.60,170.40"/>
    </edge>
    <edge id=":5_0" function="internal">
        <lane id=":5_0_0" index="0" speed="13.89" length="20.80" shape="170.40,324.80 149.60,324.80"/>
        <lane id=":5_0_1" index="1" speed="13.89" length="20.80" shape="170.40,321.60 149.60,321.60"/>
    </edge>
    <edge id=":5_2" function="internal">
        <lane id=":5_2_0" index="0" speed="9.26" length="5.01" shape="170.40,321.60 165.44,320.89"/>
    </edge>
    <edge id=":5_9" function="internal">
        <lane id=":5_9_0" index="0" speed="9.26" length="14.34" shape="165.44,320.89 165.15,320.85 161.40,318.60 159.15,314.85 158.40,309.60"/>
    </edge>
    <edge id=":5_3" function="internal">
        <lane id=":5_3_0" index="0" speed="6.51" length="9.03" shape="164.80,309.60 165.15,312.05 166.20,313.80 167.95,314.85 170.40,315.20"/>
        <lane id=":5_3_1" index="1" speed="8.00" length="14.19" shape="161.60,309.60 162.15,313.45 163.80,316.20 166.55,317.85 170.40,318.40"/>
    </edge>
    <edge id=":5_5" function="internal">
        <lane id=":5_5_0" index="0" speed="9.26" length="19.35" shape="161.60,309.60 160.85,314.85 158.60,318.60 154.85,320.85 149.60,321.60"/>
    </edge>
    <edge id=":5_6" function="internal">
        <lane id=":5_6_0" index="0" speed="6.51" length="9.03" shape="149.60,315.20 152.05,314.85 153.80,313.80 154.85,312.05 155.20,309.60"/>
    </edge>
    <edge id=":5_7" function="internal">
        <lane id=":5_7_0" index="0" speed="13.89" length="20.80" shape="149.60,315.20 170.40,315.20"/>
        <lane id=":5_7_1" index="1" speed="13.89" length="20.80" shape="149.60,318.40 170.40,318.40"/>
    </edge>
    <edge id=":6_0" function="internal">
        <lane id=":6_0_0" index="0" speed="3.90" length="2.58" shape="315.20,6.40 315.10,5.70 314.80,5.20 314.30,4.90 313.60,4.80"/>
        <lane id=":6_0_1" index="1" speed="6.08" length="7.74" shape="318.40,6.40 318.10,4.30 317.20,2.80 315.70,1.90 313.60,1.60"/>
    </edge>
    <edge id=":6_2" function="internal">
        <lane id=":6_2_0" index="0" speed="8.96" length="18.06" shape="313.60,-4.80 318.50,-4.10 322.00,-2.00 324.10,1.50 324.80,6.40"/>
        <lane id=":6_2_1" index="1" speed="7.66" length="12.90" shape="313.60,-1.60 317.10,-1.10 319.60,0.40 321.10,2.90 321.60,6.40"/>
    </edge>
    <edge id=":7_0" function="internal">
        <lane id=":7_0_0" index="0" speed="6.51" length="9.03" shape="315.20,170.40 314.85,167.95 313.80,166.20 312.05,165.15 309.60,164.80"/>
    </edge>
    <edge id=":7_1" function="internal">
        <lane id=":7_1_0" index="0" speed="13.89" length="20.80" shape="315.20,170.40 315.20,149.60"/>
        <lane id=":7_1_1" index="1" speed="13.89" length="20.80" shape="318.40,170.40 318.40,149.60"/>
    </edge>
    <edge id=":7_3" function="internal">
        <lane id=":7_3_0" index="0" speed="13.89" length="20.80" shape="324.80,149.60 324.80,170.40"/>
        <lane id=":7_3_1" index="1" speed="13.89" length="20.80" shape="321.60,149.60 321.60,170.40"/>
    </edge>
    <edge id=":7_5" function="internal">
        <lane id=":7_5_0" index="0" speed="9.26" length="5.01" shape="321.60,149.60 320.89,154.56"/>
    </edge>
    <edge id=":7_9" function="internal">
        <lane id=":7_9_0" index="0" speed="9.26" length="14.34" shape="320.89,154.56 320.85,154.85 318.60,158.60 314.85,160.85 309.60,161.60"/>
    </edge>
    <edge id=":7_6" function="internal">
        <lane id=":7_6_0" index="0" speed="6.51" length="9.03" shape="309.60,155.20 312.05,154.85 313.80,153.80 314.85,152.05 315.20,149.60"/>
        <lane id=":7_6_1" index="1" speed="8.00" length="14.19" shape="309.60,158.40 313.45,157.85 316.20,156.20 317.85,153.45 318.40,149.60"/>
    </edge>
    <edge id=":7_8" function="internal">
        <lane id=":7_8_0" index="0" speed="9.26" length="19.35" shape="309.60,158.40 314.85,159.15 318.60,161.40 320.85,165.15 321.60,170.40"/>
    </edge>
    <edge id=":8_0" function="internal">
        <lane id=":8_0_0" index="0" speed="8.96" length="18.06" shape="324.80,313.60 324.10,318.50 322.00,322.00 318.50,324.10 313.60,324.80"/>
        <lane id=":8_0_1" index="1" speed="7.66" length="12.90" shape="321.60,313.60 321.10,317.10 319.60,319.60 317.10,321.10 313.60,321.60"/>
    </edge>
    <edge id=":8_2" function="internal">
        <lane id=":8_2_0" index="0" speed="3.90" length="2.58" shape="313.60,315.20 314.30,315.10 314.80,314.80 315.10,314.30 315.20,313.60"/>
        <lane id=":8_2_1" index="1" speed="6.08" length="7.74" shape="313.60,318.40 315.70,318.10 317.20,317.20 318.10,315.70 318.40,313.60"/>
    </edge>

    <edge id="1" from="0" to="1" priority="-1">
        <lane id="1_0" index="0" speed="13.89" length="143.20" shape="4.80,6.40 4.80,149.60"/>
        <lane id="1_1" index="1" speed="13.89" length="143.20" shape="1.60,6.40 1.60,149.60"/>
    </edge>
    <edge id="10" from="3" to="6" priority="-1">
        <lane id="10_0" index="0" speed="13.89" length="143.20" shape="170.40,-4.80 313.60,-4.80"/>
        <lane id="10_1" index="1" speed="13.89" length="143.20" shape="170.40,-1.60 313.60,-1.60"/>
    </edge>
    <edge id="11" from="4" to="1" priority="-1">
        <lane id="11_0" index="0" speed="13.89" length="139.20" shape="149.60,164.80 10.40,164.80"/>
        <lane id="11_1" index="1" speed="13.89" length="139.20" shape="149.60,161.60 10.40,161.60"/>
    </edge>
    <edge id="12" from="4" to="3" priority="-1">
        <lane id="12_0" index="0" speed="13.89" length="139.20" shape="155.20,149.60 155.20,10.40"/>
        <lane id="12_1" index="1" speed="13.89" length="139.20" shape="158.40,149.60 158.40,10.40"/>
    </edge>
    <edge id="13" from="4" to="5" priority="-1">
        <lane id="13_0" index="0" speed="13.89" length="139.20" shape="164.80,170.40 164.80,309.60"/>
        <lane id="13_1" index="1" speed="13.89" length="139.20" shape="161.60,170.40 161.60,309.60"/>
    </edge>
    <edge id="14" from="4" to="7" priority="-1">
        <lane id="14_0" index="0" speed="13.89" length="139.20" shape="170.40,155.20 309.60,155.20"/>
        <lane id="14_1" index="1" speed="13.89" length="139.20" shape="170.40,158.40 309.60,158.40"/>
    </edge>
    <edge id="15" from="5" to="2" priority="-1">
        <lane id="15_0" index="0" speed="13.89" length="143.20" shape="149.60,324.80 6.40,324.80"/>
        <lane id="15_1" index="1" speed="13.89" length="143.20" shape="149.60,321.60 6.40,321.60"/>
    </edge>
    <edge id="16" from="5" to="4" priority="-1">
        <lane id="16_0" index="0" speed="13.89" length="139.20" shape="155.20,309.60 155.20,170.40"/>
        <lane id="16_1" index="1" speed="13.89" length="139.20" shape="158.40,309.60 158.40,170.40"/>
    </edge>
    <edge id="17" from="5" to="8" priority="-1">
        <lane id="17_0" index="0" speed="13.89" length="143.20" shape="170.40,315.20 313.60,315.20"/>
        <lane id="17_1" index="1" speed="13.89" length="143.20" shape="170.40,318.40 313.60,318.40"/>
    </edge>
    <edge id="18" from="6" to="3" priority="-1">
        <lane id="18_0" index="0" speed="13.89" length="143.20" shape="313.60,4.80 170.40,4.80"/>
        <lane id="18_1" index="1" speed="13.89" length="143.20" shape="313.60,1.60 170.40,1.60"/>
    </edge>
    <edge id="19" from="6" to="7" priority="-1">
        <lane id="19_0" index="0" speed="13.89" length="143.20" shape="324.80,6.40 324.80,149.60"/>
        <lane id="19_1" index="1" speed="13.89" length="143.20" shape="321.60,6.40 321.60,149.60"/>
    </edge>
    <edge id="2" from="0" to="3" priority="-1">
        <lane id="2_0" index="0" speed="13.89" length="143.20" shape="6.40,-4.80 149.60,-4.80"/>
        <lane id="2_1" index="1" speed="13.89" length="143.20" shape="6.40,-1.60 149.60,-1.60"/>
    </edge>
    <edge id="20" from="7" to="4" priority="-1">
        <lane id="20_0" index="0" speed="13.89" length="139.20" shape="309.60,164.80 170.40,164.80"/>
        <lane id="20_1" index="1" speed="13.89" length="139.20" shape="309.60,161.60 170.40,161.60"/>
    </edge>
    <edge id="21" from="7" to="6" priority="-1">
        <lane id="21_0" index="0" speed="13.89" length="143.20" shape="315.20,149.60 315.20,6.40"/>
        <lane id="21_1" index="1" speed="13.89" length="143.20" shape="318.40,149.60 318.40,6.40"/>
    </edge>
    <edge id="22" from="7" to="8" priority="-1">
        <lane id="22_0" index="0" speed="13.89" length="143.20" shape="324.80,170.40 324.80,313.60"/>
        <lane id="22_1" index="1" speed="13.89" length="143.20" shape="321.60,170.40 321.60,313.60"/>
    </edge>
    <edge id="23" from="8" to="5" priority="-1">
        <lane id="23_0" index="0" speed="13.89" length="143.20" shape="313.60,324.80 170.40,324.80"/>
        <lane id="23_1" index="1" speed="13.89" length="143.20" shape="313.60,321.60 170.40,321.60"/>
    </edge>
    <edge id="24" from="8" to="7" priority="-1">
        <lane id="24_0" index="0" speed="13.89" length="143.20" shape="315.20,313.60 315.20,170.40"/>
        <lane id="24_1" index="1" speed="13.89" length="143.20" shape="318.40,313.60 318.40,170.40"/>
    </edge>
    <edge id="3" from="1" to="0" priority="-1">
        <lane id="3_0" index="0" speed="13.89" length="143.20" shape="-4.80,149.60 -4.80,6.40"/>
        <lane id="3_1" index="1" speed="13.89" length="143.20" shape="-1.60,149.60 -1.60,6.40"/>
    </edge>
    <edge id="4" from="1" to="2" priority="-1">
        <lane id="4_0" index="0" speed="13.89" length="143.20" shape="4.80,170.40 4.80,313.60"/>
        <lane id="4_1" index="1" speed="13.89" length="143.20" shape="1.60,170.40 1.60,313.60"/>
    </edge>
    <edge id="5" from="1" to="4" priority="-1">
        <lane id="5_0" index="0" speed="13.89" length="139.20" shape="10.40,155.20 149.60,155.20"/>
        <lane id="5_1" index="1" speed="13.89" length="139.20" shape="10.40,158.40 149.60,158.40"/>
    </edge>
    <edge id="6" from="2" to="1" priority="-1">
        <lane id="6_0" index="0" speed="13.89" length="143.20" shape="-4.80,313.60 -4.80,170.40"/>
        <lane id="6_1" index="1" speed="13.89" length="143.20" shape="-1.60,313.60 -1.60,170.40"/>
    </edge>
    <edge id="7" from="2" to="5" priority="-1">
        <lane id="7_0" index="0" speed="13.89" length="143.20" shape="6.40,315.20 149.60,315.20"/>
        <lane id="7_1" index="1" speed="13.89" length="143.20" shape="6.40,318.40 149.60,318.40"/>
    </edge>
    <edge id="8" from="3" to="0" priority="-1">
        <lane id="8_0" index="0" speed="13.89" length="143.20" shape="149.60,4.80 6.40,4.80"/>
        <lane id="8_1" index="1" speed="13.89" length="143.20" shape="149.60,1.60 6.40,1.60"/>
    </edge>
    <edge id="9" from="3" to="4" priority="-1">
        <lane id="9_0" index="0" speed="13.89" length="139.20" shape="164.80,10.40 164.80,149.60"/>
        <lane id="9_1" index="1" speed="13.89" length="139.20" shape="161.60,10.40 161.60,149.60"/>
    </edge>

    <tlLogic id="0" type="static" programID="0" offset="0">
        <phase duration="42" state="GGGG"/>
        <phase duration="3"  state="yyyy"/>
        <phase duration="42" state="GGGG"/>
        <phase duration="3"  state="yyyy"/>
    </tlLogic>
    <tlLogic id="1" type="static" programID="0" offset="0">
        <phase duration="42" state="GGgrrrGGG"/>
        <phase duration="3"  state="yyyrrryyy"/>
        <phase duration="42" state="rrrGGGGrr"/>
        <phase duration="3"  state="rrryyyyrr"/>
    </tlLogic>
    <tlLogic id="2" type="static" programID="0" offset="0">
        <phase duration="42" state="GGGG"/>
        <phase duration="3"  state="yyyy"/>
        <phase duration="42" state="GGGG"/>
        <phase duration="3"  state="yyyy"/>
    </tlLogic>
    <tlLogic id="3" type="static" programID="0" offset="0">
        <phase duration="42" state="rrrGGGGGg"/>
        <phase duration="3"  state="rrryyyyyy"/>
        <phase duration="42" state="GGGGrrrrr"/>
        <phase duration="3"  state="yyyyrrrrr"/>
    </tlLogic>
    <tlLogic id="4" type="static" programID="0" offset="0">
        <phase duration="42" state="GGGgrrrrGGGgrrrr"/>
        <phase duration="3"  state="yyyyrrrryyyyrrrr"/>
        <phase duration="42" state="rrrrGGGgrrrrGGGg"/>
        <phase duration="3"  state="rrrryyyyrrrryyyy"/>
    </tlLogic>
    <tlLogic id="5" type="static" programID="0" offset="0">
        <phase duration="42" state="GGgrrrGGG"/>
        <phase duration="3"  state="yyyrrryyy"/>
        <phase duration="42" state="rrrGGGGrr"/>
        <phase duration="3"  state="rrryyyyrr"/>
    </tlLogic>
    <tlLogic id="6" type="static" programID="0" offset="0">
        <phase duration="42" state="GGGG"/>
        <phase duration="3"  state="yyyy"/>
        <phase duration="42" state="GGGG"/>
        <phase duration="3"  state="yyyy"/>
    </tlLogic>
    <tlLogic id="7" type="static" programID="0" offset="0">
        <phase duration="42" state="GGGGGgrrr"/>
        <phase duration="3"  state="yyyyyyrrr"/>
        <phase duration="42" state="GrrrrrGGG"/>
        <phase duration="3"  state="yrrrrryyy"/>
    </tlLogic>
    <tlLogic id="8" type="static" programID="0" offset="0">
        <phase duration="42" state="GGGG"/>
        <phase duration="3"  state="yyyy"/>
        <phase duration="42" state="GGGG"/>
        <phase duration="3"  state="yyyy"/>
    </tlLogic>

    <junction id="0" type="traffic_light" x="0.00" y="0.00" incLanes="3_0 3_1 8_0 8_1" intLanes=":0_0_0 :0_0_1 :0_2_0 :0_2_1" shape="-6.40,6.40 6.40,6.40 6.40,-6.40 2.49,-6.04 -0.71,-4.98 -3.20,-3.20 -4.98,-0.71 -6.04,2.49">
        <request index="0" response="0000" foes="0000" cont="0"/>
        <request index="1" response="0000" foes="0000" cont="0"/>
        <request index="2" response="0000" foes="0000" cont="0"/>
        <request index="3" response="0000" foes="0000" cont="0"/>
    </junction>
    <junction id="1" type="traffic_light" x="0.00" y="160.00" incLanes="6_0 6_1 11_0 11_1 1_0 1_1" intLanes=":1_0_0 :1_0_1 :1_9_0 :1_3_0 :1_3_1 :1_5_0 :1_6_0 :1_7_0 :1_7_1" shape="-6.40,170.40 6.40,170.40 6.84,168.18 7.40,167.40 8.18,166.84 9.18,166.51 10.40,166.40 10.40,153.60 8.18,153.16 7.40,152.60 6.84,151.82 6.51,150.82 6.40,149.60 -6.40,149.60">
        <request index="0" response="000000000" foes="000100000" cont="0"/>
        <request index="1" response="000000000" foes="000100000" cont="0"/>
        <request index="2" response="110000000" foes="110100000" cont="1"/>
        <request index="3" response="110000000" foes="110000000" cont="0"/>
        <request index="4" response="110000000" foes="110000000" cont="0"/>
        <request index="5" response="110000111" foes="110000111" cont="0"/>
        <request index="6" response="000000000" foes="000000000" cont="0"/>
        <request index="7" response="000000000" foes="000111100" cont="0"/>
        <request index="8" response="000000000" foes="000111100" cont="0"/>
    </junction>
    <junction id="2" type="traffic_light" x="0.00" y="320.00" incLanes="15_0 15_1 4_0 4_1" intLanes=":2_0_0 :2_0_1 :2_2_0 :2_2_1" shape="6.40,326.40 6.40,313.60 -6.40,313.60 -6.04,317.51 -4.98,320.71 -3.20,323.20 -0.71,324.98 2.49,326.04">
        <request index="0" response="0000" foes="0000" cont="0"/>
        <request index="1" response="0000" foes="0000" cont="0"/>
        <request index="2" response="0000" foes="0000" cont="0"/>
        <request index="3" response="0000" foes="0000" cont="0"/>
    </junction>
    <junction id="3" type="traffic_light" x="160.00" y="0.00" incLanes="12_0 12_1 18_0 18_1 2_0 2_1" intLanes=":3_0_0 :3_0_1 :3_2_0 :3_3_0 :3_4_0 :3_4_1 :3_6_0 :3_6_1 :3_9_0" shape="153.60,10.40 166.40,10.40 166.84,8.18 167.40,7.40 168.18,6.84 169.18,6.51 170.40,6.40 170.40,-6.40 149.60,-6.40 149.60,6.40 151.82,6.84 152.60,7.40 153.16,8.18 153.49,9.18">
        <request index="0" response="000110000" foes="000110000" cont="0"/>
        <request index="1" response="000110000" foes="000110000" cont="0"/>
        <request index="2" response="111110000" foes="111110000" cont="0"/>
        <request index="3" response="000000000" foes="000000000" cont="0"/>
        <request index="4" response="000000000" foes="100000111" cont="0"/>
        <request index="5" response="000000000" foes="100000111" cont="0"/>
        <request index="6" response="000000000" foes="000000100" cont="0"/>
        <request index="7" response="000000000" foes="000000100" cont="0"/>
        <request index="8" response="000110000" foes="000110100" cont="1"/>
    </junction>
    <junction id="4" type="traffic_light" x="160.00" y="160.00" incLanes="16_0 16_1 20_0 20_1 9_0 9_1 5_0 5_1" intLanes=":4_0_0 :4_1_0 :4_1_1 :4_16_0 :4_4_0 :4_5_0 :4_5_1 :4_17_0 :4_8_0 :4_9_0 :4_9_1 :4_18_0 :4_12_0 :4_13_0 :4_13_1 :4_19_0" shape="153.60,170.40 166.40,170.40 166.84,168.18 167.40,167.40 168.18,166.84 169.18,166.51 170.40,166.40 170.40,153.60 168.18,153.16 167.40,152.60 166.84,151.82 166.51,150.82 166.40,149.60 153.60,149.60 153.16,151.82 152.60,152.60 151.82,153.16 150.82,153.49 149.60,153.60 149.60,166.40 151.82,166.84 152.60,167.40 153.16,168.18 153.49,169.18">
        <request index="0"  response="0000000000000000" foes="0000000001100000" cont="0"/>
        <request index="1"  response="1000000010000000" foes="1111100011100000" cont="0"/>
        <request index="2"  response="1000000010000000" foes="1111100011100000" cont="0"/>
        <request index="3"  response="1000011010000000" foes="1110011011100000" cont="1"/>
        <request index="4"  response="0000011000000000" foes="0000011000000000" cont="0"/>
        <request index="5"  response="0000111000001111" foes="1000111000001111" cont="0"/>
        <request index="6"  response="0000111000001111" foes="1000111000001111" cont="0"/>
        <request index="7"  response="0110111000001110" foes="0110111000001110" cont="1"/>
        <request index="8"  response="0000000000000000" foes="0110000000000000" cont="0"/>
        <request index="9"  response="1000000010000000" foes="1110000011111000" cont="0"/>
        <request index="10" response="1000000010000000" foes="1110000011111000" cont="0"/>
        <request index="11" response="1000000010000110" foes="1110000011100110" cont="1"/>
        <request index="12" response="0000000000000110" foes="0000000000000110" cont="0"/>
        <request index="13" response="0000111100001110" foes="0000111110001110" cont="0"/>
        <request index="14" response="0000111100001110" foes="0000111110001110" cont="0"/>
        <request index="15" response="0000111001101110" foes="0000111001101110" cont="1"/>
    </junction>
    <junction id="5" type="traffic_light" x="160.00" y="320.00" incLanes="23_0 23_1 13_0 13_1 7_0 7_1" intLanes=":5_0_0 :5_0_1 :5_9_0 :5_3_0 :5_3_1 :5_5_0 :5_6_0 :5_7_0 :5_7_1" shape="170.40,326.40 170.40,313.60 168.18,313.16 167.40,312.60 166.84,311.82 166.51,310.82 166.40,309.60 153.60,309.60 153.16,311.82 152.60,312.60 151.82,313.16 150.82,313.49 149.60,313.60 149.60,326.40">
        <request index="0" response="000000000" foes="000100000" cont="0"/>
        <request index="1" response="000000000" foes="000100000" cont="0"/>
        <request index="2" response="110000000" foes="110100000" cont="1"/>
        <request index="3" response="110000000" foes="110000000" cont="0"/>
        <request index="4" response="110000000" foes="110000000" cont="0"/>
        <request index="5" response="110000111" foes="110000111" cont="0"/>
        <request index="6" response="000000000" foes="000000000" cont="0"/>
        <request index="7" response="000000000" foes="000111100" cont="0"/>
        <request index="8" response="000000000" foes="000111100" cont="0"/>
    </junction>
    <junction id="6" type="traffic_light" x="320.00" y="0.00" incLanes="21_0 21_1 10_0 10_1" intLanes=":6_0_0 :6_0_1 :6_2_0 :6_2_1" shape="313.60,6.40 326.40,6.40 326.04,2.49 324.98,-0.71 323.20,-3.20 320.71,-4.98 317.51,-6.04 313.60,-6.40">
        <request index="0" response="0000" foes="0000" cont="0"/>
        <request index="1" response="0000" foes="0000" cont="0"/>
        <request index="2" response="0000" foes="0000" cont="0"/>
        <request index="3" response="0000" foes="0000" cont="0"/>
    </junction>
    <junction id="7" type="traffic_light" x="320.00" y="160.00" incLanes="24_0 24_1 19_0 19_1 14_0 14_1" intLanes=":7_0_0 :7_1_0 :7_1_1 :7_3_0 :7_3_1 :7_9_0 :7_6_0 :7_6_1 :7_8_0" shape="313.60,170.40 326.40,170.40 326.40,149.60 313.60,149.60 313.16,151.82 312.60,152.60 311.82,153.16 310.82,153.49 309.60,153.60 309.60,166.40 311.82,166.84 312.60,167.40 313.16,168.18 313.49,169.18">
        <request index="0" response="000000000" foes="000000000" cont="0"/>
        <request index="1" response="000000000" foes="111100000" cont="0"/>
        <request index="2" response="000000000" foes="111100000" cont="0"/>
        <request index="3" response="000000000" foes="100000000" cont="0"/>
        <request index="4" response="000000000" foes="100000000" cont="0"/>
        <request index="5" response="000000110" foes="100000110" cont="1"/>
        <request index="6" response="000000110" foes="000000110" cont="0"/>