<routes xmlns:xsi="http://www.w3.org/2001/XMLSchema-instance" xsi:noNamespaceSchemaLocation="http://sumo.dlr.de/xsd/routes_file.xsd">
    <route edges="27108506#0 27108506#1 27108506#2 27108506#3 27108506#4 135982507#3 135982507#4 135982526#0 135982526#1 135982514 135982510 135982486#0 135982486#1 27235474 135982515#0 135982515#1 135982515#2 135982515#3 135982515#4 135982515#5 135982515#6 135982515#7 135982515#8 135982515#9 135982515#10 135982515#11 135982494 135982504#0 135982495 135982482#0 135982482#1 135982482#2 135982482#3 135982490 135982477 -135982477" id="route1" />
    <route edges="-8116113#1 8116113#1 8116113#2 8116113#3 8116113#4 8116113#5 8116113#6 8116113#7 8116113#8 8116113#9 32942493#0 32942493#1 32497485#0 32497485#1 80363141#0 80363141#1 23184327#1 23184327#2 23184327#3 23184327#4 23184327#5 34395259#0 34395259#1 -23332076#1 -23332076#0 23511097 -39673908#9 -39673908#8 -39673908#7 -39673908#6 -39673908#5 -39673908#4 -39673908#3 -39673908#2 -39673908#1 -39673908#0 23578528#0 23578528#1 23578528#2 23578528#3 149052565 149052570#0 149052570#1 94593654#0 94593654#1 94593654#2 -41260493#1" id="route2" />

    <route edges="32942367#0 23213150#2 23288872#0 23288872#1 23288872#2 23288872#3 23288872#4 135982516#0 135982516#1 135982516#2 135982489 135982511#0 135982511#1 135982511#2 135982530 23288915 135982488#0 135982488#1 135982476#0 135982476#1 135982476#2 135982476#3 135982476#4 23295986#0 -23295984#1 -23295984#0 -31322298#17 -31322298#16 -31322298#15 -31322298#14 -31322298#13 -31322298#12 -31322298#11 -31322298#10 -31322298#9 -31322298#8 -31322298#7 -31322298#6 -31322298#5 -31322298#4 -31322298#3 -31322298#2 -31322298#1 -31322298#0 31322298#0" id="route3" />

    <route edges="41728725#1 41728725#2 -28302772#2 -28302772#1 -28302772#0 82549436#0 82549436#1 82549437#0 82549437#1 35901454#0 35901454#1 -35901453#3 35487552#0 35487552#1 35898872#3 35898872#4 35898872#5 35898872#6 23290288#0 23290288#1 23290288#2 22757706#13 22757706#14 22757706#15 22757706#16 23290069#0 23290069#1 23290069#2 23290069#3 23289967#3 23289967#4 23289967#5 23289967#6 23289967#7 23289967#8 23289967#9 34522500#0 34522500#1 23288945#3 23288945#4 23288945#5 34524636 23288960#0 23288960#1 23288960#2 23288960#3 23288960#4 131881828#0 131881828#1 131881828#2 23288761#0 23288761#1 131881840#0 23296622#0 23296622#1 -23296625" id="route4" />

    <route edges="23189387#1 -116440051 23189376#2 23189364#2 43469287#3 150018086#0 150018086#1 150018078#4 150018078#5 150018078#6 150018078#7 150018078#8 150018078#9 150018078#10 150018078#11 150018081#0 150018081#1 23296623#0 23296623#1 23296623#2 131881833 132006073 132003833#0 132003833#1 23288757#0 23288757#1 23288757#2 23288757#3 23288757#4 23288757#5 34524852#0 34524852#1 23288957#0 23288957#1 23288957#2 23288957#3 23288957#4 23288944#0 23288944#1 23288944#2 23288944#3 23288944#4 23288944#5 23837911#0 23837911#1 23837911#2 23837911#3 23837911#4 -23295988#1 -23295988#0 23288923#0 23288923#1 23288923#2 132262795 -135982534 -135982507#4" id="route5" />

    <route edges="-36837590 23296265#2 23296265#3 23296265#4 -23296329#1 26979311#1 26979311#2 32497919#6 32497919#7 132106761#0 132106761#1 132106761#2 132106761#3 -49405052#1 -49405052#0 23296227#0 23296227#1 150076246#0 150076246#1 33747684 33747765#0 33747765#1 33747765#2 33747765#3 33747765#4 33747765#5 23288872#4 135982516#0 135982516#1 135982516#2 135982489 135982511#0 135982511#1 135982511#2 135982530 23288915 135982488#0 135982488#1 135982476#0 135982476#1 135982476#2 135982476#3 135982476#4 23295986#0 23295986#1 23288931#0 23288931#1 23288931#2 23288931#3 33523402 83202926#0 83202926#1 83202926#2 83202926#3 83202926#4 83202926#5 96199140#0 96199140#1 96199140#2 96199140#3 40062856#0 40062856#1 -96199132 -35898872#9 -35898872#8 -35898872#7 -35898872#6 -35898872#5 -35898872#4 35416220 -23290308#5 35416221 23290347#1" id="route6" />

    <route edges="-132693324 -132693325 -41877869 25155122#0 25155122#1 25155123 39841968#0 23621681#0 23621681#1 23621681#2 23621681#3 23621681#4 23621681#5 23621681#6 41277857#4 23815777 77960510#0 77960510#1 -32003370#1 -32003370#0 -24260996 -23452985#2 -23452985#1 -23452985#0 43205393#1 23453044#0 23453044#1 23453044#2 23453044#3 23453044#4 33831608 23288787#3 23288767#0 23288767#1 23288767#2 23288767#3 23288767#4 23288767#5 23288767#6 23288767#7 23288767#8 23277071#0 23277071#1 23277071#2 23277071#3 23277071#4 80653048#0 80653048#1 149899476#0 149899476#1 149899476#2 150018091#0 150018091#1 80655884#0 80655884#1 80655884#2 80655884#3 80655884#4 80655884#5 132006073 132003833#0 132003833#1 23288757#0 23288757#1 23288757#2 23288757#3 23288757#4 23288757#5 34524852#0 34524852#1 23288957#0 23288957#1 23288957#2 23288957#3 35855793#0 35855795 -35855795" id="route7" />

    <route edges="27472835#1 27108559#3 -30635860#5 -30635860#4 -30635860#3 -30635860#2 -30635860#1 -30635860#0 -150052402#2 -150052402#1 -150052402#0 -150052400#2 -150052400#1 -150052400#0 -23296246 23275370#0 23275370#1 23275370#2 23275370#3 23275370#4 23275370#5 55302014#0 55302014#1 55302014#2 -31743212#1 -31743212#0 23275345#0 23275345#1 23275345#2 23275345#3 23275345#4 23210836#0 23210836#1 23210836#2 77955974 23288787#0 23288787#1 23288787#2 23288787#3 23288767#0 23288767#1 23288767#2 23288767#3 23288767#4 23288767#5 23288767#6 23288767#7 23288767#8 23277071#0 23277071#1 23277071#2 23277071#3 23277071#4 80653048#0 80653048#1 149899476#0 149899476#1 149899476#2 150018091#0 150018091#1 80655884#0 80655884#1 34547601 148678215#0 23296625" id="route8" />

    <route edges="-37711682#1 -37711682#0 37711681#1 82549441 -28302772#3 -28302772#2 -28302772#1 -28302772#0 82549436#0 82549436#1 82549437#0 82549437#1 35901454#0 35901454#1 -35901453#3 35487552#0 35487552#1 35898872#3 35898872#4 35898872#5 35898872#6 23290288#0 23290288#1 23290288#2 22757706#13 22757706#14 22757706#15 22757706#16 23290069#0 23290069#1 23290069#2 23290069#3 23289967#3 23289967#4 23289967#5 23289967#6 23289967#7 23289967#8 23289967#9 34522500#0 34522500#1 23288945#3 23288945#4 23288945#5 34524636 23288960#0 23288960#1 23288960#2 23288960#3 23288960#4 131881828#0 131881828#1 131881828#2 23288761#0 23288761#1 131881840#0 131881840#1 131881840#2 131881840#3 131881840#4 43469290 43469291#0 43469291#1 131881836#0 131881836#1 131881836#2 131881836#3 131881836#4 82549442#0 82549442#1 82549435#0 82549435#1 23184327#0 23184327#1 23184327#2 23184327#3 23184327#4 23184327#5 34395273#0 34395273#1 34395273#2 34395278#0 34395278#1 34395278#2 34395278#3 23275401#0 23275401#1 23275401#2 23275401#3 43205393#3 43205393#4 43205393#0 23452985#0 23453007#0 23453007#1 23453007#2 25983186#0 25983186#1 32566032#0 32566032#1 32566032#2 24589638#1" id="route9" />

    <route edges="34559273#1 32479262 34559292#0 34559292#1 34559292#2 23189390#0 23189390#1 23189390#2 8116113#8 8116113#9 32942493#0 32942493#1 -22880342#11 -22880342#10 -22880342#9 -22880342#8 -22880342#7 -22880342#6 -22880342#5 -22880342#4 -22880342#3 -22880342#2 -22880342#1 -22880342#0 -93783754#1 -93783754#0 -23288817 77955974 23275401#1 23275401#2 23275401#3 43205393#3 43205393#4 43205393#0 23452985#0 23452985#1 23452985#2 24260996 32003370#0 32003370#1 23621960#0 23621960#1 23621960#2 31785433 23622055#0 23622055#1 40874980#5 40874980#0 40874980#1 40872976#0 40872976#1 40872976#2 40872976#3 40872976#4 80653044#0 80653044#1 80653044#2 102946820#0 102946820#1 102946820#2 102946820#3 102946820#4 -102946820#4" id="route10" />

    <route edges="34550054 34549991#0 34550056 -23295182#0 34550242#4 34550242#5 34550242#6 34550242#0 33831421#0 33831421#1 33831421#2 33831421#3 33831421#4 33831421#5 80655879#9 33831426#0 33831426#1 34559273#0 34559273#1 32479262 34559292#0 34559292#1 34559292#2 23189390#0 23189390#1 23189390#2 23189293#0 23189293#1 23189293#2 23189293#3 23189293#4 32241874 32241701#1 32241701#2 32241701#3 32241701#4 32241690 32241691" id="route11" />

    <route edges="135982477 -135982477 135982520#0 135982520#1 135982520#2 135982520#3 135982487#0 135982487#1 32497919#0 32497919#1 32497919#2 32497919#3 32497919#4 32497919#5 32497919#6 32497919#7 132106761#0 132106761#1 132106761#2 132106761#3 -49405052#1 -49405052#0 23296227#0 23296227#1 150076246#0 150076246#1 33747684 33747765#0 33747765#1 33747765#2 33747765#3 33747765#4 33747765#5 23288872#4 135982516#0 135982516#1 135982516#2 135982489 135982511#0 135982511#1 135982511#2 135982530 23288915 135982488#0 135982488#1 135982476#0 135982476#1 135982476#2 135982476#3 135982476#4 23295986#0 -23295984#1 -23295984#0 -31322298#17 -31322298#16 -31322298#15 -31322298#14 -31322298#13 -31322298#12 -31322298#11 -31322298#10 -31322298#9" id="route12" />

    <route edges="65292476#0 65292476#1 65292476#2 65292476#3 -23287261#2 -23287261#1 -23287261#0 -23291001#6 -23291001#5 -23291001#4 -23291001#3 -23291001#2 -23291001#1 -23291001#0 23276959#2 23276959#3 23276959#4 22757706#0 22757706#1 22757706#2 22757706#3 22757706#4 22757706#5 22757706#6 22757706#7 22757706#8 22757706#9 22757706#10 22757706#11 22757706#12 22757706#13 22757706#14 22757706#15 22757706#16 22757706#17 22757706#18 22757706#19 22757706#20 22757706#21 22757706#22 22757706#23 22757706#24 22757706#25 22757706#26 22757706#27 22757706#28 22757706#29 22757706#30 22757706#31 22757706#32 23288944#0 23288944#1 23288944#2 23288944#3 23288944#4 23288944#5 23837911#0 23837911#1 23837911#2 23837911#3 23837911#4 -23295988#1 -23295988#0 23288923#0 23276509#0 23276509#1 23271799#3 23271799#4 34036620#1 -34036609#1 -34036609#0 30893573 34347629#2 34347629#3 30887578#0 30887578#1 95408276#7 23189459#0 23189459#1 23189459#2 23189459#3 135982505#5 135982505#6 135982505#7 135982505#8" id="route13" />

    <route edges="-23296945#3 23296945#3 23296945#4 23296886 149040728#0 149040728#1 149040728#2 -32479333#2 -32479333#1 -32479333#0 -32942505#7 -32942505#6 -32942505#5 -32942505#4 -32942505#3 -32942505#2 -32942505#1 -32942505#0 -82544186 8116114 11480374#0 11480374#1 11480374#2 11480374#3 11480374#4 11480374#5 11480374#6 11480374#7 11480374#8 11480374#9 11480374#10 11480374#11 11480374#12 11480374#13 11480374#14 11480374#15 11480374#16 11480374#17 11480374#18 11480374#19 11480374#20 11480374#21 11480374#22 32942367#0 23213150#2 32064423 149955205#0 149955205#1 149955205#2 149955205#3 -23275323#13 -23275323#12 -23275323#11 -23275323#10 -23275323#9 -23275323#8 -23275323#7 24260992#0 24260992#1 24260992#2 24260992#3 -24260991#0 32022597 135814509 23491647#3 23491647#4 23491647#5 55467182 -97808859 -97808860 -23491622#1 -23491622#0" id="route14" />

    <route edges="36954649#2 -36954649#2 -36954649#1 -36954649#0 -40872976#4 -40872976#3 -40872976#2 -40872976#1 -40872976#0 40874980#2 40874980#3 40872975#0 40872975#1 40872975#2 40872975#3 77960510#0 77960510#1 -32003370#1 -32003370#0 -24260996 -23452985#2 -23452985#1 -23452985#0 43205393#1 23453044#0 23453044#1 23453044#2 23453044#3 23453044#4 33831608 23288787#3 23288767#0 23288767#1 23288767#2 23288767#3 23288767#4 23288767#5 23288767#6 23288767#7 23288767#8 23277071#0 23277071#1 23277071#2 23277071#3 23277071#4 80653048#0 80653048#1 149899476#0 149899476#1 149899476#2 150018091#0 150018091#1 80655884#0 80655884#1 80655884#2 80655884#3 80655884#4 80655884#5 132006073 132003833#0 132003833#1 23288757#0 23288757#1 23288757#2 23288757#3 23288757#4 23288757#5 34524852#0 23289608#0 23289608#1 23289608#2 23289608#3 23289608#4 23289817#0 23289817#1 23289817#2 23289817#3 119742500#0 119742500#1 26256667#0 -108830918#1 -108830918#0 26256817 108831007#0 26256824#0 26256824#1 26256666#1" id="route15" />

    <route edges="34550195 33831421#1 33831421#2 33831421#3 -23275450#3 -23275450#2 -23275450#1 -23275450#0 -23253102 -32942500#1 -32942500#0 -32479333#4 -32479333#3 -32479333#2 -32479333#1 -32479333#0 -32942505#7 -32942505#6 -32942505#5 -32942505#4 32942505#4" id="route16" />

    <route edges="23296246 150052400#0 150052400#1 150052400#2 -49405052#1 -49405052#0 23296227#0 23296227#1 150076246#0 150076246#1 33747684 33747765#0 33747765#1 33747765#2 33747765#3 33747765#4 33747765#5 23288872#4 135982516#0 135982516#1 135982516#2 135982489 135982511#0 135982511#1 135982511#2 135982530 23288915 135982488#0 135982488#1 135982476#0 135982476#1 135982476#2 135982476#3 135982476#4 23295986#0 23295986#1 23288931#0 23288931#1 23288931#2 23288931#3 33523402 83202926#0 83202926#1 83202926#2 83202926#3 83202926#4 83202926#5 96199140#0 96199140#1 96199140#2 96199140#3 96199140#4 96199140#5 83202925#0 83202925#1 82549437#0 82549437#1" id="route17" />

    <route edges="150018085#1 150018086#0 150018086#1 150018078#4 150018078#5 150018078#6 150018078#7 150018078#8 150018084#0 150018084#1 -34547555#2 34547212#0 34547212#1 34547192#1 34547386#0 34547386#1 34547386#2 34547386#3 34547386#4 34547386#5 82549435#1 23184327#0 23184327#1 23184327#2 23184327#3 23184327#4 23184327#5 34395273#0 34395273#1 34395273#2 34395278#0 34395278#1 34395278#2 34395278#3 23275401#0 23275401#1 23275401#2 23275401#3 43205393#3 43205393#4 43205393#0 23452985#0 23452985#1 23452985#2 24260996 32003370#0 32003370#1 23621960#0 23621960#1 23621960#2 41277857#0 41277857#1 41277857#2 23443899 24589436#0 24589436#1 24589437#0 24589437#1 32566100#0 32566100#1 32566100#2 32566100#3 32566100#4 23411093#1 23411093#2" id="route18" />

    <route edges="35855792 23290032#1 35855793#1 23290045 23289967#8 23289967#9 23288957#3 23288957#4 23288944#0 23288944#1 23288944#2 23288944#3 23288944#4 23288944#5 23837911#0 23837911#1 23837911#2 23837911#3 23837911#4 -23295988#1 -23295988#0 23288923#0 23288923#1 23288923#2 132262795 135982518 135982506 135982510 135982486#0 135982486#1 27235474 135982515#0 135982515#1 135982515#2 135982515#3 135982515#4 135982515#5 135982515#6 135982515#7 135982515#8 135982515#9 135982515#10 135982515#11 135982494 26996227#0 26996227#1 26996227#2 26996227#3" id="route19" />

    <route edges="39673920 30635861#3 30635861#4 30635861#5 39673917 -23510937#6 -23510937#5 -23510937#4 -23510937#3 -23510937#2 -23510937#1 -23510937#0 23275323#10 23275323#11 23275323#12 23275323#13 23296246 150052400#0 150052400#1 150052400#2 -49405052#1 -49405052#0 23296227#0 23296227#1 150076246#0 150076246#1 33747684 33747765#0 33747765#1 33747765#2 33747765#3 33747765#4 33747765#5 23288872#4 135982516#0 135982516#1 135982516#2 135982489 135982511#0 135982511#1 135982511#2 135982530 23288915 135982488#0 135982488#1 135982476#0 135982476#1 135982476#2 135982476#3 135982476#4 23295986#0 23295986#1 23288931#0 23288931#1 23288931#2 23288931#3 23837909#0 23837909#1 23837909#2" id="route20" />

    <route edges="32210009#8 32210009#9 -93783754#1 -93783754#0 23288823#0 23288823#1 23288823#2 23213150#0 23213150#1 23213150#2 32064423 149955205#0 149955205#1 149955205#2 149955205#3 -23275323#13 -23275323#12 -23275323#11 -23275323#10" id="route21" />

    <route edges="-39673921#2 -130072848#0 -23510937#1 -23510937#0 23275323#10 23275323#11 23275323#12 23275323#13 23275370#0 23275370#1 23275370#2 23275370#3 23275370#4 23275370#5 55302014#0 55302014#1 55302014#2 -31743212#1 -31743212#0 23275345#0 23275345#1 23275345#2 23275345#3 23275345#4 149955204 23183655#0 23183655#1 23183655#2 23183655#3 23183655#4 23183655#5 23183655#6 23183655#7 23183655#8 23271629#0 23296421#0 34348079 11480374#11 11480374#12 11480374#13" id="route22" />

    <route edges="-23296296#1 -23296296#0 23296227#1 150076246#0 150076246#1 33747684 33747765#0 33747765#1 33747765#2 150029324 23288888#2 23288888#3 23288888#4 23288868 83078456#0 83078456#1 149955204 23183655#0 23183655#1 23183655#2 23183655#3 23183655#4 23183655#5 23183655#6 23183655#7 23183655#8 23183655#9 23183655#10 23183655#11 23183655#12 23183655#13 23271667#0 -47004755#2+23271667#1 -47004755#1+23271667#2 -47004755#0 -47004755#3" id="route23" />

    <route edges="-23454212#4 -55527468#4 -55527468#3 -55527468#2 -55527468#1 -55527468#0 -31826226 -108300603#3 -108300603#2 -108300603#1 -108300603#0 -108300601 -119742504#8 -119742504#7 31743230 -41277853#3 -41277853#2 -41277853#1 -41277853#0 -23443892#2 -23443892#1 -23443892#0 132106767#0 132106767#1 23443908 23453927 23453926#0 23453926#1 132106753#0 132106753#1 -39841968#2 -39841968#1 -39841968#0 -39673914#10 -39673914#9 -39673914#8 -39673914#7 -39673914#6 -39673914#5 -39673914#4 -39673914#3 -39673914#2 -39673914#1 -39673914#0 80653044#0 80653044#1 80653044#2 102946820#0 102946820#1 102946820#2 102946820#3 102946820#4" id="route24" />

    <route edges="27089300 -27089300 97496335#0 97496335#1 97496335#2 135982487#0 135982487#1 32497919#0 32497919#1 32497919#2 32497919#3 32497919#4 32497919#5 32497919#6 32497919#7 132106761#0 132106761#1 132106761#2 132106761#3 -150052400#2 -150052400#1 -150052400#0 -23296246 23275370#0 23275370#1 23275370#2 23275370#3 23275370#4 23275370#5 55302014#0 55302014#1 55302014#2 -31743212#1 -31743212#0 23275345#0 23275345#1 23275345#2 23275345#3 23275345#4 23210836#0 23210836#1 23210836#2 23288817 93783754#0 93783754#1 22880342#0 22880342#1 22880342#2 22880342#3 22880342#4 22880342#5 22880342#6 22880342#7 22880342#8 22880342#9 22880342#10 22880342#11 23185864#0 23185864#1 23185864#2 23185864#3 150018090#0 150018090#1 150018078#7 150018078#8 150018078#9 150018078#10 150018078#11 150018078#0 150018078#1 150018078#2 150018085#0 150018085#1" id="route25" />

    <route edges="-59855021 59855021 -59855030#0 -39673914#2 -39673914#1 -39673914#0 -40872976#4 -40872976#3 -40872976#2 -40872976#1 -40872976#0 40874980#2 40874980#3 40872975#0 40872975#1 40872975#2 40872975#3 23815790#0 23815790#1 23815790#2 56870101 56870092#0 56870092#1 56870092#2 56870092#3" id="route26" />

    <route edges="-32241968#3 -32241968#2 -32241968#1 32241701#0 32241701#1 32241701#2 32241701#3 32241963 23189293#3 23189260#0 23189260#1 23189260#2 23218811#1 23218811#2 -8116113#9 -8116113#8 -8116113#7 -8116113#6 -8116113#5 -8116113#4 -8116113#3 -8116113#2 -8116113#1 -8116113#0 -32942505#7 -32942505#6 -32942505#5 -32942505#4 -32942505#3 -32942505#2 -32942505#1 32942505#1" id="route27" />

    <route edges="-31759740#0 31759740#0 31759740#1 23189140#2 23189093 32497651 32497676 23189200#0 23189200#1 150052408 37931741#0 37931741#1 37931741#2 37931741#3 132262789 132262790 23277216#0 23277216#1 23277216#2 41277870#0 41277870#1 -25695583 -23184329 23277071#0 23277071#1 23277071#2 23277071#3 23277071#4 80653048#0 80653048#1 149899476#0 149899476#1 149899476#2 150018091#0 150018091#1 80655884#0 80655884#1 80655884#2 80655884#3 80655884#4 80655884#5 132006073 132003833#0 132003833#1 23288757#0 23288757#1 23288757#2 23288757#3 23288757#4 23288757#5 34524852#0 34524852#1 23288957#0 23288957#1 23288957#2 23288957#3 23288957#4 23288944#0 23290191#1 23290191#2 23290191#3 96199160#0 23290276#0 23290276#1 35898143 22757706#23 22757706#24 22757745#0 22757745#1" id="route28" />

    <route edges="95408276#5 95408276#6 95408276#7 95408276#8 32812916#0 32812916#1 32812916#2 135982508 135982501 23288915 135982488#0 135982488#1 135982476#0 135982476#1 135982476#2 135982476#3 135982476#4 23295986#0 23295986#1 23288931#0 23288931#1 23288931#2 23288931#3 33523402 83202926#0 83202926#1 83202926#2 83202926#3 83202926#4 83202926#5 96199140#0 96199140#1 96199140#2 96199140#3 96199140#4 96199140#5 83202925#0 83202925#1 -82549436#1 -82549436#0 28302772#0" id="route29" />

    <route edges="23296622#0 -23296622#0 131881840#1 131881840#2 131881840#3 131881840#4 43469290 43469291#0 43469291#1 131881836#0 131881836#1 131881836#2 131881836#3 131881836#4 82549442#0 82549442#1 82549435#0 82549435#1 132262800 23184329 25695583 -41277870#1 -41277870#0 28771409#0 28771409#1 28771409#2 23277314#0 23277314#1 23277314#2 23277314#3 23189124#0 31759743#0 31759743#1 31759743#2 31759743#3 31759743#4 31759743#5 31759743#6" id="route30" />

    <route edges="-39784866 41277858#1 41277858#2 41277856#0 41277856#1 41277856#2 41277856#3 41277856#4 23621960#0 23621960#1 23621960#2 31785433 23622055#0 23622055#1 40874980#5 40874980#0 40874980#1 40872976#0 40872976#1 40872976#2 40872976#3 40872976#4 36954649#0 36954649#1 36954649#2 44614140#0 44614140#1 44614140#2 59854990 115842636 115842634#0 115842634#1 115842634#2 115842634#3 115842634#4 32733257#0 32733257#1 36774087#0 36774087#1 36774085 148520890 -148520890" id="route31" />

    <route edges="119742492#1 33830036 23291373#2 23291373#3 23291373#4 23291373#5 23289967#0 23289967#1 23289967#2 23289967#3 23289967#4 23289967#5 23289967#6 23289967#7 23289967#8 23289967#9 23288957#3 23288957#4 23288944#0 23288944#1 23288944#2 23288944#3 23288944#4 23288944#5 23837911#0 23837911#1 23837911#2 23837911#3 23837911#4 -23295988#1 -23295988#0 23288923#0 23288923#1 23288923#2 132262795 135982518 135982506 135982510 135982486#0 135982486#1 27235474 135982515#0 135982515#1 135982515#2 135982515#3 135982515#4 135982515#5 135982515#6 135982515#7 135982515#8 135982515#9 135982515#10 135982515#11 135982494 135982504#0 135982495 135982482#0 135982482#1 135982482#2 135982482#3 135982490 135982520#0 135982520#1 135982520#2 135982520#3 -97496335#2 -97496335#1 -97496335#0" id="route32" />

    <route edges="-35829122 35829121 23290069#2 23290069#3 23289967#3 23289967#4 23289967#5 23289967#6 23289967#7 23289967#8 23289967#9 34522500#0 34522500#1 23288945#3 23288945#4 23288945#5 34524636 23288960#0 23288960#1 23288960#2 23288960#3 23288960#4 131881828#0 131881828#1 131881828#2 23288761#0 23288761#1 131881840#0 131881840#1 131881840#2 131881840#3 131881840#4 43469290 43469291#0 43469291#1 131881836#0 131881836#1 131881836#2 131881836#3 131881836#4 82549442#0 82549442#1 82549435#0 82549435#1 23184327#0 23184327#1 23184327#2 23184327#3 23184327#4 23184327#5 34395273#0 34395273#1 34395273#2 34395278#0 34395278#1 34395278#2 34395278#3 23275401#0 23275401#1 23275401#2 23275401#3 43205393#3 43205393#4 43205393#0 23452985#0 23452985#1 23452985#2 24260996 32003370#0 32003370#1 23621960#0 23621960#1 23621960#2 31785433 23622055#0 25155137#1 25155137#2 -40872883#3 -40872883#2 -40872883#1 -40872883#0 -39673914#10 -39673914#9 59855000 123211888 59855003 59855002#1 -59854997 59854997" id="route33" />

    <route edges="40504392#2 82789384#3 82789384#4 -102946820#5 -102946820#4 -102946820#3 -102946820#2 -102946820#1 -102946820#0 -80653044#2 -80653044#1 -80653044#0 39673914#0 39673914#1 39673914#2 39673914#3 39673914#4 39673914#5 39673914#6 39673914#7 39673914#8 39673914#9 39673914#10 39841968#0 39841968#1 39841968#2 23443918#0 23443918#1 -23453926#1 -23453926#0 -23453927 -23443908 23411093#0 23411093#1 23411093#2 23443892#0 23443892#1 23443892#2 41277853#0 41277853#1 41277853#2 41277853#3 32497947 25866624 25866626#0 25866626#1 39673917 -23510937#6 -23510937#5 -23510937#4 -23510937#3 -23510937#2 -23510937#1 -23510937#0 23296256#0 23296256#1 23296256#2 23296256#3 23296256#4 132106761#0 132106761#1" id="route34" />

    <route edges="29230452 23271961#3 23288823#2 23213150#0 32942447#1 23210836#0 23210836#1 23210836#2 77955974 23288787#0 23288787#1 23288787#2 23288787#3 23288767#0 23288767#1 23288767#2 23288767#3 23288767#4 23288767#5 23288767#6 23288767#7 23288767#8 23184329 25695583 -41277870#1 -41277870#0 28771409#0 28771409#1 28771409#2 23277314#0 23277314#1 23277314#2 23277314#3 23189124#0 23189124#1 23189124#2 23189124#3 23189124#4 23189124#5" id="route35" />

    <route edges="49403726#5 -23296247 23275323#12 23275323#13 23275370#0 23275370#1 23275370#2 23275370#3 23275370#4 23275370#5 55302014#0 55302014#1 55302014#2 -31743212#1 -31743212#0 23275345#0 23275345#1 23275345#2 23275345#3 23275345#4 23210836#0 23210836#1 23210836#2 77955974 23288787#0 23288787#1 23288787#2 23288787#3 -23332076#1 -23332076#0 23511097 -39673908#9 -39673908#8 -39673908#7 -39673908#6 -39673908#5 -39673908#4 -39673908#3 -39673908#2 -39673908#1 -39673908#0 23578528#0 23578528#1 77960512#3 23277561#0 23277561#1 23277561#2 23277561#3 23277561#4 23277561#5 23277561#6 23277561#7 23277561#8 23277561#9 23277411#0" id="route36" />

    <route edges="-59854997 -23618117#0 25155122#1 25155123 39841968#0 39841968#1 39841968#2 23443918#0 23443918#1 -23453926#1 -23453926#0 -23453927 -23443908 23411093#0 23411093#1 23411093#2 23443892#0 23443892#1 23443892#2 41277853#0 41277853#1 59626762#0 59626762#1 -59626762#1" id="route37" />

    <route edges="23297054 11480374#3 11480374#4 11480374#5 11480374#6 11480374#7 11480374#8 11480374#9 11480374#10 11480374#11 11480374#12 11480374#13 11480374#14 11480374#15 11480374#16 11480374#17 11480374#18 23271947 32942447#0 32942447#1 23210836#0 23210836#1 23210836#2 77955974 23275401#1 23275401#2 23275401#3 43205393#3 43205393#4 43205393#0 23452985#0 23452985#1 23452985#2 24260996 32003370#0 32003370#1 23621960#0 23621960#1 23621960#2 31785433 23622055#0 23622055#1 40874980#5 40874980#0 40874980#1 40872976#0 40872976#1 40872976#2 40872976#3 40872976#4 39673914#0 39673914#1 39673914#2 39673914#3 39673914#4 39673914#5 59855029 59855031 59855018 82554615 82554609#0 82554609#1 -82554609#1" id="route38" />

    <route edges="23621681#6 41277857#4 23815777 23815790#0 23815790#1 23815790#2 56870101 56870092#0 56870092#1 56870092#2 56870092#3 77960511 40874774 40874704#0 40874704#1 40874704#2 77960512#1 77960512#2 77960512#3 23277561#0 23277561#1 23277561#2 23277561#3 23277561#4 23277561#5 44611178#0 44611178#1 44611178#2" id="route39" />

    <route edges="23183655#19 8116114 11480374#0 11480374#1 11480374#2 11480374#3 11480374#4 11480374#5 11480374#6 11480374#7 11480374#8 11480374#9 11480374#10 11480374#11 11480374#12 11480374#13 11480374#14 11480374#15 11480374#16 11480374#17 11480374#18 23271947 32942447#0 32942447#1 23210836#0 23210836#1 23210836#2 77955974 23275401#1 23275401#2 23275401#3 43205393#3 43205393#4 43205393#0 23452985#0 23452985#1 23452985#2 24260996 32003370#0 32003370#1 23621960#0 23621960#1 23621960#2 31785433 23622055#0 23622055#1 40874980#5 40874980#0 40874980#1 40872976#0 40872976#1 40872976#2 40872976#3 40872976#4 80653044#0 80653044#1 80653044#2 102946820#0 102946820#1 102946820#2 102946820#3 102946820#4 102946820#5 40504395#0 40504395#1 40504395#2 40504395#3 40507282#0 -40507282#0" id="route40" />

    <route edges="97808859 135814520 23491647#1 55467185 -32022597 24260991#0 24260991#1 24260991#2 24260991#3 24260991#4 24260991#5 34106562#0 34106562#1 34106562#2 34106562#3 -119742504#7 -119742504#6 -119742504#5 -119742504#4 -119742504#3 -119742504#2 -119742504#1 -119742504#0 -31743212#1 -31743212#0 23275345#0 -23453129#3 -23453129#2 -23453129#1 -23453129#0 23453128#0 23453128#1 -23301386 23291200#2" id="route41" />

    <route edges="-23296623#0 23296623#0 23296623#1 23296623#2 131881840#0 131881840#1 131881840#2 131881840#3 131881840#4 43469290 43469291#0 43469291#1 131881836#0 131881836#1 131881836#2 131881836#3 131881836#4 82549442#0 82549442#1 82549435#0 82549435#1 23184327#0 23184327#1 23184327#2 23184327#3 23184327#4 23184327#5 34395273#0 34395273#1 34395273#2 34395278#0 34395278#1 34395278#2 34395278#3 93783755 23288823#0 23288823#1 23288823#2 23213150#0 23213150#1 23213150#2 32064423 149955205#0 149955205#1 149955205#2 149955205#3 -23275323#13 -23275323#12 -23275323#11 -23275323#10 -23275323#9 -23275323#8 -23275323#7 -23275323#6 -23275323#5 -23275323#4 -23275323#3" id="route42" />

    <route edges="-24149146#1 24149146#1 55467180#1 55467180#2 -23510937#5 -23510937#4 -23510937#3 -23510937#2 -23510937#1 -23510937#0 23296256#0 23296256#1 23296256#2 23296256#3 23296256#4 132106763#0 132106763#1 132106763#2 132106763#3 132106763#4 132106763#5 132106763#6 44637121 135982494 26996227#0 26996227#1 26996227#2 26996227#3 -27108559#1 27108559#1" id="route43" />

    <route edges="34524636 23277029 34524852#1 23288957#0 23288957#1 23288957#2 23288957#3 23288957#4 83202928 23271744 33757835#0 33757835#1 82549439 82549438 23271728#0" id="route44" />

    <route edges="-23290119#2 23290119#2 -23289637#4 -23289637#3 -23289637#2 -23289637#1 23291373#4 23291373#5 23289967#0 23289967#1 23289967#2 23289967#3 23289967#4 23289967#5 23289967#6 23289967#7 23289967#8 23289967#9 34522500#0 34522500#1 23288945#3 23288945#4 23288945#5 34524636 23288960#0 23288960#1 23288960#2 23288960#3 23288960#4 131881828#0 131881828#1 131881828#2 23288761#0 23288761#1 131881840#0 131881840#1 131881840#2 131881840#3 131881840#4 43469290 43469291#0 43469291#1 131881836#0 131881836#1 131881836#2 131881836#3 131881836#4 82549442#0 82549442#1 82549435#0 82549435#1 23184327#0 23184327#1 23184327#2 23184327#3 23184327#4 23184327#5 34395273#0 34395273#1 34395064#0 34395064#1 34395064#2 -22880342#3 -22880342#2 22880342#2" id="route45" />

    <route edges="97076091 34395278#1 34395278#2 34395278#3 93783755 23288823#0 23288823#1 23288823#2 23213150#0 23213150#1 23213150#2 32064423 149955205#0 149955205#1 149955205#2 149955205#3 23296246 150052400#0 150052400#1 150052400#2 150052402#0 23296318#0" id="route46" />

    <route edges="8116113#1 8116113#2 8116113#3 8116113#4 8116113#5 8116113#6 8116113#7 8116113#8 8116113#9 32942493#0 32942493#1 32497485#0 32497485#1 80363141#0 80363141#1 23184327#1 23184327#2 23184327#3 23184327#4 23184327#5 34395259#0 34395259#1 -23332076#1 -23332076#0 23511097 -39673908#9 -39673908#8 -39673908#7 39783613#0 39783613#1 39783615#1" id="route47" />

    <route edges="-108140491#6 -108140491#5 -108140491#4 -108140491#3 -108140491#2 -108140491#1 56061736#1 56061736#2 56061736#3 31759743#8 31759743#9 24266527 41277864 41277858#0 41277858#1 41277858#2 41277856#0 41277856#1 41277856#2 41277856#3 41277856#4 -32003370#1 -32003370#0 -24260996 -23452985#2 -23452985#1 23453007#0 23453007#1 23453007#2 25983186#0 25983186#1 23510982 46609624 25983203#0 25983203#1 32566059" id="route48" />
