<routes>

   <route id="route1" edges="32497485#0 32497485#1 80363141#0 80363141#1 80363141#2 23277071#0 23277071#1 23277071#2 23277071#3 23277071#4 80653046#0 80653046#1 80653046#2 -149900358#0" />
   <route id="route2" edges="32497485#0 32497485#1 80363141#0 80363141#1 80363141#2 23277071#0 23277071#1 23277071#2 23277071#3 23277071#4 80653048#0 80653048#1 149899476#0 149899476#1 -149900350#0 -149900346#3 -149900346#2 -149900346#1 -149900346#0 -149900348#0" />
   <route id="route3" edges="32497485#0 32497485#1 80363141#0 80363141#1 80363141#2 23277071#0 23277071#1 23277071#2 23277071#3 23277071#4 80653048#0 80653048#1 149899476#0 149899476#1 -149900350#0 -149900346#3 -149900346#2 -149900346#1 -149900346#0 149900348#1 149900348#2 149900357#1 149900357#2 149900357#3" />
   <route id="route4" edges="32497485#0 32497485#1 80363141#0 80363141#1 80363141#2 23277071#0 23277071#1 23277071#2 23277071#3 23277071#4 80653048#0 80653048#1 149899476#0 149899476#1 -149900350#0 -149900346#3 -149900346#2 -149900347#1 149900359#2 149900359#3 149900359#4 149900359#5" />
   <route id="route5" edges="32497485#0 32497485#1 80363141#0 80363141#1 80363141#2 23277071#0 23277071#1 23277071#2 23277071#3 23277071#4 80653048#0 80653048#1 149899476#0 149899476#1 -149900350#0 -149900346#3 -149900346#2 -149900346#1 -149900346#0 149900348#1 149900348#2 -149900357#0" />
   <route id="route6" edges="32497485#0 32497485#1 80363141#0 80363141#1 80363141#2 23277071#0 23277071#1 23277071#2 23277071#3 23277071#4 80653048#0 80653048#1 149899476#0 149899476#1 -149900350#0 -149900346#3 -149900346#2 -149900346#1 -149900346#0 149900348#1 149900348#2 149900357#1 149900357#2 -149900353#0" />
   <route id="route7" edges="32497485#0 32497485#1 80363141#0 80363141#1 80363141#2 23184329 25695583 -41277870#1 -41277870#0 28771409#0 -148808931" />
   <route id="route8" edges="32497485#0 32497485#1 80363141#0 80363141#1 80363141#2 23277071#0 23277071#1 23277071#2 23277071#3 23277071#4 80653048#0 80653048#1 149899476#0 149899476#1 -149900350#0 -149900346#3 -149900346#2 -149900346#1 -149900346#0 149900348#1 149900348#2 149900357#1 149900357#2 149900353#1" />
   <route id="route9" edges="32497485#0 32497485#1 80363141#0 80363141#1 80363141#2 23277071#0 23277071#1 23277071#2 -149900354#0 149900352#0 149900352#1" />
   <route id="route10" edges="32497485#0 32497485#1 80363141#0 80363141#1 80363141#2 23184329 25695583 -41277870#1 -41277870#0 28771409#0 28771409#1 28771409#2 -32497598#2 -31976031" />
   <route id="route11" edges="32497485#0 32497485#1 80363141#0 80363141#1 80363141#2 23277071#0 23277071#1 23277071#2 23277071#3 23277071#4 80653048#0 80653048#1 149899476#0 149899476#1 149899476#2 150018091#0 150018091#1 23220063 82544187#0 82544187#1 34547555#0 34547555#1" />
   <route id="route12" edges="32497485#0 32497485#1 80363141#0 80363141#1 80363141#2 23184329 25695583 -41277870#1 -41277870#0 28771409#0 28771409#1 28771409#2 23277314#0 23277314#1 23277314#2 -148808929" />
   <route id="route13" edges="32497485#0 32497485#1 80363141#0 80363141#1 80363141#2 23184329 25695583 -41277870#1 -41277870#0 28771409#0 28771409#1 28771409#2 23277314#0 -148826456" />
   <route id="route14" edges="32497485#0 -34547316 -34547315#1 -34547315#0 23289049 23185864#2 23185864#3 150018090#0 -150608194#1 -150608195#1 -150608195#0" />
   <route id="route15" edges="32497485#0 -34547316 -34547315#1 -34547315#0 23289049 23185864#2 23185864#3 150018090#0 150018090#1 150018078#7 150018078#8 150018078#9 150018078#10 150018078#11 150018078#0 150608192#1" />
   <route id="route16" edges="32497485#0 32497485#1 80363141#0 80363141#1 80363141#2 23184329 25695583 -41277870#1 -41277870#0 28771409#0 28771409#1 28771409#2 23189090#0 23189090#1 31976053" />
   <route id="route17" edges="32497485#0 32497485#1 80363141#0 80363141#1 80363141#2 23277071#0 23277071#1 23277071#2 23277071#3 23277071#4 80653048#0 80653048#1 149899476#0 149899476#1 149899476#2 150018091#0 150018091#1 80655884#0 -77606531#1 131881840#4" />
   <route id="route18" edges="32497485#0 32497485#1 80363141#0 80363141#1 23184327#1 23184327#2 23184327#3 23218857#1 23288767#3 23288767#4 23288767#5 35015527#0 -134118008" />
   <route id="route19" edges="32497485#0 32497485#1 80363141#0 80363141#1 23184327#1 23184327#2 23184327#3 23184327#4 23184327#5 34395259#0 -148841926#1 23288767#1 -148841919 148859383#2 -148841930#0" />
   <route id="route20" edges="32497485#0 32497485#1 80363141#0 80363141#1 23184327#1 23184327#2 23184327#3 23218857#1 23288767#3 23288767#4 23288767#5 23288767#6 23288767#7 37931738 37931739" />
   <route id="route21" edges="32497485#0 32497485#1 80363141#0 80363141#1 80363141#2 23184329 25695583 -41277870#1 -41277870#0 28771409#0 28771409#1 28771409#2 23277314#0 23277314#1 23277314#2 23277314#3 23189124#0 31759743#0 31759743#1 31759743#2 31759743#3 31759743#4 -108140491#12 -108140491#11 -108140491#10 -108140491#9 148696937#0 148696937#1" />
   <route id="route22" edges="32497485#0 32497485#1 80363141#0 80363141#1 23184327#1 23184327#2 23184327#3 23184327#4 23184327#5 34395273#0 34395273#1 34395273#2 34395278#0 34395278#1 -60900603#1 -60900603#0" />
   <route id="route23" edges="32497485#0 32497485#1 80363141#0 80363141#1 80363141#2 23184329 25695583 -41277870#1 -41277870#0 28771409#0 28771409#1 28771409#2 23277314#0 23277314#1 23277314#2 23277314#3 23189124#0 31759743#0 31759743#1 31759743#2 31759743#3 31759743#4 -108140491#12 -108140491#11 -108140491#10 -108140491#9 -108140491#8 -108140491#7 148696935#0 148696935#1" />
   <route id="route24" edges="32497485#0 -34547316 -34547315#1 -34547315#0 23289049 23185864#2 23185864#3 150018090#0 150018090#1 150018078#7 23189350 34547166 34547192#0 34547212#2 -34547288" />
   <route id="route25" edges="32497485#0 32497485#1 80363141#0 80363141#1 80363141#2 23184329 25695583 -41277870#1 -41277870#0 28771409#0 28771409#1 28771409#2 23277314#0 23277314#1 23277314#2 23277314#3 23189124#0 31759743#0 31759743#1 31759743#2 31759743#3 31759743#4 -108140491#12 -108140491#11 -108140491#10 -108140491#9 -108140491#8 -108140491#7 -108140491#6 148696942#1 148696929" />
   <route id="route26" edges="32497485#0 32497485#1 80363141#0 80363141#1 80363141#2 23184329 25695583 -41277870#1 -41277870#0 28771409#0 28771409#1 28771409#2 23277314#0 23277314#1 23277314#2 23277314#3 23189124#0 31759743#0 23277411#5 40148696 -148808930" />
   <route id="route27" edges="32497485#0 32497485#1 80363141#0 80363141#1 80363141#2 23184329 25695583 -41277870#1 -41277870#0 28771409#0 28771409#1 28771409#2 23277314#0 23277314#1 23277314#2 23277314#3 23189124#0 31759743#0 31759743#1 31759743#2 31759743#3 31759743#4 -108140491#12 -108140491#11 -108140491#10 -108140491#9 -108140491#8 -108140491#7 148696935#0 -40101275#5 148696942#0 108140491#6" />
   <route id="route28" edges="32497485#0 32497485#1 80363141#0 80363141#1 80363141#2 23184329 25695583 -41277870#1 -41277870#0 28771409#0 28771409#1 28771409#2 23277314#0 23277314#1 23277314#2 23277314#3 23189124#0 31759743#0 31759743#1 31759743#2 31759743#3 31759743#4 -108140491#12 -108140491#11 -108140491#10 -108140491#9 -108140491#8 -108140491#7 -108140491#6 -148696942#0 40101275#5 -148696935#0" />
   <route id="route29" edges="32497485#0 32497485#1 80363141#0 80363141#1 80363141#2 23277071#0 23277071#1 23277071#2 23277071#3 23277071#4 80653048#0 80653048#1 149899476#0 149899476#1 149899476#2 150018091#0 150018091#1 80655884#0 80655884#1 80655884#2 80655884#3 80655884#4 80655884#5 132006073 132003833#0 132003833#1 132003832 131881828#0 131881828#1 131881828#2 23288761#0 23288761#1" />
   <route id="route30" edges="32497485#0 32497485#1 80363141#0 80363141#1 80363141#2 23184329 25695583 -41277870#1 -41277870#0 28771409#0 28771409#1 28771409#2 23277314#0 23277314#1 23277314#2 23277314#3 23189124#0 31759743#0 31759743#1 31759743#2 31759743#3 31759743#4 -108140491#12 -108140491#11 -108140491#10 -108140491#9 -108140491#8 -108140491#7 -108140491#6 -148696942#0 -40101275#4 148696947#0" />
   <route id="route31" edges="32497485#0 32497485#1 80363141#0 80363141#1 80363141#2 23277071#0 23277071#1 23277071#2 23277071#3 23277071#4 80653048#0 80653048#1 149899476#0 149899476#1 149899476#2 150018091#0 150018091#1 80655884#0 80655884#1 80655884#2 80655884#3 80655884#4 80655884#5 132006073 132003833#0 132003833#1 132003832 131881828#0 131881828#1 131881828#2 -33831415 23714248" />
   <route id="route32" edges="32497485#0 32497485#1 80363141#0 80363141#1 80363141#2 23184329 25695583 -41277870#1 -41277870#0 28771409#0 28771409#1 28771409#2 23277314#0 23277314#1 23277314#2 23277314#3 23189124#0 31759743#0 31759743#1 31759743#2 31759743#3 31759743#4 -108140491#12 -108140491#11 -108140491#10 -108140491#9 -108140491#8 -108140491#7 -108140491#6 -108140491#5 -108140491#4 -148696949#0" />
   <route id="route33" edges="32497485#0 32497485#1 80363141#0 80363141#1 80363141#2 23184329 25695583 -41277870#1 -41277870#0 28771409#0 28771409#1 28771409#2 23277314#0 23277314#1 23277314#2 23277314#3 23189124#0 31759743#0 31759743#1 31759743#2 31759743#3 31759743#4 -108140491#12 -108140491#11 -108140491#10 -108140491#9 -108140491#8 -108140491#7 -108140491#6 -108140491#5 -108140491#4 148696949#1" />
   <route id="route34" edges="32497485#0 32497485#1 80363141#0 80363141#1 80363141#2 23277071#0 24470254 25695587#0 48388750" />
   <route id="route35" edges="32497485#0 32497485#1 80363141#0 80363141#1 23184327#1 23184327#2 23184327#3 23218857#1 23288767#3 35015769" />
   <route id="route36" edges="32497485#0 -34547316 -34547315#1 -34547315#0 23289049 23185864#2 32479265 23275873 34559179 -32243088#0 32479262 34559292#0 34559292#1 34559672" />
   <route id="route37" edges="32497485#0 -34547316 -34547315#1 -34547315#0 23289049 23185864#2 23185864#3 150018090#0 150018090#1 150018078#7 150018078#8 150018078#9 150018078#10 150018078#11 150018078#0 150018078#1 150018078#2 150018085#0 150018085#1 -43469287#3 -43469287#2 34549301#0 34549315" />
   <route id="route38" edges="32497485#0 32497485#1 80363141#0 80363141#1 80363141#2 23184329 25695583 -41277870#1 -41277870#0 28771409#0 28771409#1 28771409#2 23277314#0 23277314#1 23277314#2 23277314#3 23189124#0 31759743#0 31759743#1 31759743#2 31759743#3 31759743#4 -108140491#12 -108140491#11 -108140491#10 -108140491#9 -108140491#8 -108140491#7 -108140491#6 -108140491#5 -148696947#0 40101275#4" />
   <route id="route39" edges="32497485#0 32497485#1 80363141#0 80363141#1 80363141#2 23184329 25695583 -41277870#1 -41277870#0 28771409#0 28771409#1 28771409#2 23277314#0 23277314#1 23277314#2 23277314#3 23189124#0 31759743#0 31759743#1 31759743#2 31759743#3 31759743#4 -108140491#12 -108140491#11 -108140491#10 -108140491#9 -108140491#8 -108140491#7 -108140491#6 -108140491#5 -108140491#4 -108140491#3" />
   <route id="route40" edges="32497485#0 32497485#1 80363141#0 80363141#1 80363141#2 23184329 25695583 -41277870#1 -41277870#0 28771409#0 28771409#1 28771409#2 23277314#0 23277314#1 23277314#2 23277314#3 23189124#0 31759743#0 31759743#1 31759743#2 31759743#3 31759743#4 -108140491#12 -108140491#11 -108140491#10 -108140491#9 -108140491#8 -108140491#7 -108140491#6 -108140491#5 -148696947#0 -40101275#3" />
   <route id="route41" edges="32497485#0 32497485#1 80363141#0 80363141#1 23184327#1 23184327#2 23184327#3 23184327#4 23184327#5 34395259#0 -148841926#1 23288767#1 -148841919 148859383#2 148841930#1" />
   <route id="route42" edges="32497485#0 32497485#1 80363141#0 80363141#1 80363141#2 23277071#0 23277071#1 23277071#2 23277071#3 23277071#4 80653048#0 80653048#1 149899476#0 149899476#1 149899476#2 150018091#0 150018091#1 80655884#0 80655884#1 80655884#2 80655884#3 80655884#4 80655884#5 132006073 132003833#0 132003833#1 23288757#0 23288757#1 23288757#2 23288757#3 -34549788 -23296616#1" />
   <route id="route43" edges="32497485#0 32497485#1 80363141#0 80363141#1 80363141#2 23277071#0 23277071#1 23277071#2 23277071#3 23277071#4 80653048#0 80653048#1 149899476#0 149899476#1 149899476#2 150018091#0 150018091#1 80655884#0 80655884#1 80655884#2 80655884#3 80655884#4 80655884#5 132006073 132003833#0 132003833#1 132003832 131881828#0 131881828#1 131881828#2 -33831415 34547773" />
   <route id="route44" edges="32497485#0 32497485#1 80363141#0 80363141#1 80363141#2 23184329 25695583 -41277870#1 -41277870#0 28771409#0 28771409#1 28771409#2 23277314#0 23277314#1 23277314#2 23277314#3 23189124#0 31759743#0 31759743#1 31759743#2 31759743#3 31759743#4 31759743#5 31759743#6 31759743#7 31759743#8 31759743#9 39673908#5 39673908#6 39673908#7 39673908#8 39673908#9" />
   <route id="route45" edges="32497485#0 32497485#1 80363141#0 80363141#1 80363141#2 23277071#0 23277071#1 23277071#2 23277071#3 23277071#4 80653048#0 80653048#1 149899476#0 149899476#1 149899476#2 150018091#0 150018091#1 80655884#0 80655884#1 80655884#2 80655884#3 80655884#4 80655884#5 132006073 132003833#0 132003833#1 23288757#0 23288757#1 23288757#2 -34549810 23296616#1 34549788" />
   <route id="route46" edges="32497485#0 -34547316 -34547315#1 -34547315#0 23289049 23185864#2 23185864#3 150018090#0 150018090#1 150018078#7 150018078#8 150018078#9 150018078#10 150018078#11 150018078#0 150018078#1 150018078#2 150018085#0 150018085#1 -43469287#3 23189364#3 34549328" />
   <route id="route47" edges="32497485#0 32497485#1 80363141#0 80363141#1 80363141#2 23184329 25695583 -41277870#1 -41277870#0 28771409#0 28771409#1 28771409#2 23277314#0 23277314#1 23277314#2 23277314#3 23189124#0 31759743#0 31759743#1 31759743#2 31759743#3 31759743#4 31759743#5 31759743#6 31759743#7 31759743#8 31759743#9 -39673908#4 -39673908#3 148704578#1 148704600#2 148704582#0" />
   <route id="route48" edges="32497485#0 32497485#1 80363141#0 80363141#1 80363141#2 23184329 25695583 -41277870#1 -41277870#0 28771409#0 28771409#1 28771409#2 23277314#0 23277314#1 23277314#2 23277314#3 23189124#0 31759743#0 31759743#1 31759743#2 31759743#3 31759743#4 -108140491#12 -39977436#2 148696971#0 148696934#0 148696918" />
   <route id="route49" edges="32497485#0 32497485#1 80363141#0 80363141#1 23184327#1 23184327#2 23184327#3 23184327#4 23184327#5 34395273#0 34395273#1 34395273#2 34395278#0 34395278#1 -60900603#1 -60900605 -60900604 23184467#1" />
   <route id="route50" edges="32497485#0 32497485#1 80363141#0 80363141#1 80363141#2 23184329 25695583 -41277870#1 -41277870#0 28771409#0 28771409#1 28771409#2 23277314#0 23277314#1 23277314#2 23277314#3 23189124#0 31759743#0 31759743#1 31759743#2 31759743#3 31759743#4 31759743#5 31759743#6 31759743#7 31759743#8 31759743#9 -39673908#4 -39673908#3 -39673908#2 -39673908#1 -39673908#0" />
   <route id="route51" edges="32497485#0 32497485#1 80363141#0 80363141#1 80363141#2 23277071#0 23277071#1 23277071#2 23277071#3 23277071#4 80653048#0 80653048#1 149899476#0 149899476#1 149899476#2 150018091#0 150018091#1 80655884#0 80655884#1 80655884#2 80655884#3 80655884#4 80655884#5 132006073 132003833#0 132003833#1 132003832 131881828#0 23295215#0 23295215#1 23295290 34549615" />
   <route id="route52" edges="32497485#0 32497485#1 80363141#0 80363141#1 80363141#2 23277071#0 23277071#1 23277071#2 23277071#3 23277071#4 80653048#0 80653048#1 149899476#0 149899476#1 149899476#2 150018091#0 150018091#1 80655884#0 80655884#1 80655884#2 80655884#3 80655884#4 80655884#5 132006073 132003833#0 132003833#1 132003832 131881828#0 23295215#0 23295215#1 23295215#2 23295215#3" />
   <route id="route53" edges="32497485#0 32497485#1 80363141#0 80363141#1 80363141#2 23184329 25695583 -41277870#1 -41277870#0 28771409#0 28771409#1 28771409#2 23277314#0 23277314#1 23277314#2 23277314#3 23189124#0 31759743#0 31759743#1 31759743#2 31759743#3 31759743#4 -108140491#12 -108140491#11 -108140491#10 -108140491#9 -108140491#8 -108140491#7 -108140491#6 148696942#1 -148696903#6 -148696947#1" />
   <route id="route54" edges="32497485#0 32497485#1 80363141#0 -70130985#1 -70130985#0 -70130986 -149876457 -149876483 -70130977 70130993 149876473 149876454 149876472 70133086#2 70133086#3 149876458 149876462#1" />
   <route id="route55" edges="32497485#0 32497485#1 80363141#0 80363141#1 80363141#2 23184329 25695583 -41277870#1 -41277870#0 28771409#0 28771409#1 28771409#2 23277314#0 23277314#1 23277314#2 23277314#3 23189124#0 31759743#0 31759743#1 31759743#2 31759743#3 31759743#4 -108140491#12 -108140491#11 -108140491#10 -108140491#9 -108140491#8 -108140491#7 -108140491#6 -108140491#5 148696947#1 148696903#6" />
   <route id="route56" edges="32497485#0 32497485#1 80363141#0 -70130985#1 -70130985#0 -70130986 -149876457 -149876483 -70130977 70130993 149876473 149876454 149876472 70133086#2 70133086#3 149876458 -149876462#0" />
   <route id="route57" edges="32497485#0 32497485#1 80363141#0 80363141#1 23184327#1 23184327#2 23184327#3 23184327#4 23184327#5 34395273#0 34395273#1 34395273#2 34395278#0 34395278#1 34395278#2 34395278#3 93783755 -23288817 -35016111#3 -35016111#2 -35016111#1 -35016111#0 35016192#1 35016192#2 38580052#2 -48369395#0" />
   <route id="route58" edges="32497485#0 32497485#1 80363141#0 80363141#1 80363141#2 23277071#0 23277071#1 23277071#2 23277071#3 23277071#4 80653048#0 80653048#1 149899476#0 149899476#1 149899476#2 150018091#0 150018091#1 80655884#0 80655884#1 80655884#2 80655884#3 80655884#4 80655884#5 132006073 132003833#0 132003833#1 132003832 131881828#0 23295215#0 34547753 34549675#0 34549675#1" />
   <route id="route59" edges="32497485#0 32497485#1 80363141#0 80363141#1 80363141#2 23184329 25695583 -41277870#1 -41277870#0 28771409#0 28771409#1 28771409#2 23277314#0 23277314#1 23277314#2 23277314#3 23189124#0 23189124#1 23189124#2 23189124#3 23189124#4 23189124#5 23277481#0 23277481#1 23277481#2 23277481#3" />
   <route id="route60" edges="32497485#0 32497485#1 80363141#0 80363141#1 80363141#2 23277071#0 23277071#1 23277071#2 23277071#3 23277071#4 80653048#0 80653048#1 149899476#0 149899476#1 149899476#2 150018091#0 150018091#1 80655884#0 80655884#1 80655884#2 80655884#3 80655884#4 80655884#5 132006073 132003833#0 132003833#1 132003832 131881828#0 23295215#0 23295215#1 23295290 23295321#0" />
   <route id="route61" edges="32497485#0 32497485#1 80363141#0 80363141#1 23184327#1 23184327#2 23184327#3 23184327#4 23184327#5 34395273#0 34395273#1 34395273#2 34395278#0 34395278#1 34395278#2 34395278#3 93783755 -23288817 -35016111#3 35016206#0 48369395#5" />
   <route id="route62" edges="32497485#0 32497485#1 80363141#0 80363141#1 80363141#2 23184329 25695583 -41277870#1 -41277870#0 28771409#0 28771409#1 28771409#2 23277314#0 23277314#1 23277314#2 23277314#3 23189124#0 31759743#0 31759743#1 31759743#2 31759743#3 31759743#4 -108140491#12 -108140491#11 -108140491#10 -108140491#9 -108140491#8 -108140491#7 -108140491#6 -108140491#5 148696947#1 -148696903#5" />
   <route id="route63" edges="32497485#0 -34547316 -34547315#1 -34547315#0 23289049 23185864#2 32479265 23275873 34559179 -32243088#0 33831428#0 23189380 -8116113#9 -32497442" />
   <route id="route64" edges="32497485#0 32497485#1 80363141#0 80363141#1 80363141#2 23277071#0 23277071#1 23277071#2 23277071#3 23277071#4 80653048#0 80653048#1 149899476#0 149899476#1 149899476#2 150018091#0 150018091#1 80655884#0 80655884#1 80655884#2 80655884#3 80655884#4 80655884#5 132006073 132003833#0 132003833#1 23288757#0 23288757#1 23288757#2 23288757#3 23288757#4 23288757#5" />
   <route id="route65" edges="32497485#0 32497485#1 80363141#0 80363141#1 80363141#2 23277071#0 23277071#1 23277071#2 23277071#3 23277071#4 80653048#0 80653048#1 149899476#0 149899476#1 149899476#2 150018091#0 150018091#1 80655884#0 80655884#1 80655884#2 80655884#3 80655884#4 80655884#5 132006073 132003833#0 132003833#1 132003832 131881828#0 23295215#0 23295215#1 23295215#2 33831417#2" />
   <route id="route66" edges="32497485#0 -34547316 -34547315#1 -34547315#0 23289049 23185864#2 23185864#3 150018090#0 150018090#1 150018078#7 150018078#8 150018078#9 150018078#10 150018078#11 150018078#0 150018078#1 150018078#2 150018085#0 150018085#1 -43469287#3 -43469287#2 -43469287#1 -43469287#0 -80655879#9 -80655879#8 -80655879#7 -80655879#6 -33832069#1 -33832069#0 -33832068#1 33832072#0 33832073" />
   <route id="route67" edges="32497485#0 32497485#1 80363141#0 80363141#1 23184327#1 23184327#2 23184327#3 23184327#4 23184327#5 34395273#0 34395273#1 34395273#2 34395278#0 34395278#1 34395278#2 34395278#3 93783755 -23288817 -35016111#3 35016206#0 35016206#1" />
   <route id="route68" edges="32497485#0 32497485#1 80363141#0 80363141#1 23184327#1 23184327#2 23184327#3 23184327#4 23184327#5 34395273#0 34395273#1 34395273#2 34395278#0 34395278#1 34395278#2 34395278#3 93783755 23288823#0 23288823#1" />
   <route id="route69" edges="32497485#0 32497485#1 80363141#0 80363141#1 80363141#2 23184329 25695583 -41277870#1 -41277870#0 28771409#0 28771409#1 28771409#2 23189090#0 23189090#1 23189090#2 23189090#3 23189090#4 35449271 35449267#2 35449267#0 148750352 148750358" />
   <route id="route70" edges="32497485#0 32497485#1 80363141#0 80363141#1 80363141#2 23184329 25695583 -41277870#1 -41277870#0 28771409#0 28771409#1 28771409#2 23277314#0 23277314#1 23277314#2 23277314#3 23189124#0 31759743#0 31759743#1 31759743#2 31759743#3 31759743#4 31759743#5 31759743#6 31759743#7 31759743#8 31759743#9 -39673908#4 -39673908#3 -39673908#2 148704597#0 -148704600#0" />
   <route id="route71" edges="32497485#0 32497485#1 80363141#0 80363141#1 80363141#2 23184329 25695583 -41277870#1 -41277870#0 28771409#0 28771409#1 28771409#2 23277314#0 23277314#1 23277314#2 23277314#3 23189124#0 23189124#1 23189124#2 23189124#3 23189124#4 37931740#2 37931740#3 37931740#4 37931740#5 37931740#6 30931617" />
   <route id="route72" edges="32497485#0 -34547316 -34547315#1 -34547315#0 23289049 23185864#2 23185864#3 150018090#0 150018090#1 150018078#7 150018078#8 150018078#9 150018078#10 150018078#11 150018078#0 150018078#1 150018078#2 150018085#0 150018085#1 -43469287#3 -43469287#2 -43469287#1 -43469287#0 -80655879#9 -80655879#8 -80655879#7 -80655879#6 -33832069#1 -33832069#0 -33832068#1 33832072#0 33832072#1" />
   <route id="route73" edges="32497485#0 32497485#1 80363141#0 80363141#1 80363141#2 23277071#0 23277071#1 23277071#2 23277071#3 23277071#4 80653048#0 80653048#1 149899476#0 149899476#1 149899476#2 150018091#0 150018091#1 80655884#0 80655884#1 80655884#2 80655884#3 80655884#4 80655884#5 132006073 132003833#0 132003833#1 132003832 131881828#0 23295215#0 34547753 34549693 23288960#4" />
   <route id="route74" edges="32497485#0 32497485#1 80363141#0 80363141#1 80363141#2 23184329 25695583 -41277870#1 -41277870#0 28771409#0 28771409#1 28771409#2 23277314#0 23277314#1 23277314#2 23277314#3 23189124#0 31759743#0 31759743#1 31759743#2 31759743#3 31759743#4 31759743#5 31759743#6 31759743#7 31759743#8 31759743#9 -39673908#4 -39673908#3 -39673908#2 -39673908#1 37594707#4" />
   <route id="route75" edges="32497485#0 -34547316 -34547315#1 -34547315#0 23289049 23185864#2 23185864#3 150018090#0 150018090#1 150018078#7 150018078#8 150018078#9 150018078#10 150018078#11 150018078#0 150018078#1 150018078#2 150018085#0 150018085#1 -43469287#3 -43469287#2 -43469287#1 -43469287#0 -80655879#9 -80655879#8 33832065#0 33832065#1 23276040#1 23276040#2 33832068#0 33832068#1 33832069#0" />
   <route id="route76" edges="32497485#0 32497485#1 80363141#0 80363141#1 80363141#2 23184329 25695583 -41277870#1 -41277870#0 28771409#0 28771409#1 28771409#2 23277314#0 23277314#1 23277314#2 23277314#3 23189124#0 31759743#0 31759743#1 31759743#2 31759743#3 31759743#4 -108140491#12 -39977436#2 148696971#0 148696971#1 -148696903#3 148696925" />
   <route id="route77" edges="32497485#0 32497485#1 80363141#0 80363141#1 80363141#2 23184329 25695583 -41277870#1 -41277870#0 28771409#0 28771409#1 28771409#2 23277314#0 23277314#1 23277314#2 23277314#3 23189124#0 31759743#0 31759743#1 31759743#2 31759743#3 31759743#4 31759743#5 31759743#6 31759743#7 31759743#8 31759743#9 24266527 39783306 78509751" />
   <route id="route78" edges="32497485#0 -34547316 -34547315#1 -34547315#0 23289049 23185864#2 23185864#3 150018090#0 150018090#1 150018078#7 150018078#8 150018078#9 150018078#10 150018078#11 150018078#0 150018078#1 150018078#2 150018085#0 150018085#1 -43469287#3 -43469287#2 -43469287#1 -43469287#0 -80655879#9 -80655879#8 -80655879#7 -80655879#6 -80655879#5 -80655879#4 -33832064#2 -33832064#1 -33832064#0" />
   <route id="route79" edges="32497485#0 32497485#1 80363141#0 80363141#1 80363141#2 23184329 25695583 -41277870#1 -41277870#0 28771409#0 28771409#1 28771409#2 23277314#0 23277314#1 23277314#2 23277314#3 23189124#0 31759743#0 31759743#1 31759743#2 31759743#3 31759743#4 31759743#5 31759743#6 31759743#7 31759743#8 31759743#9 24266527 39783306 41277863#0 41277863#1 41277863#2" />
   <route id="route80" edges="32497485#0 -34547316 -34547315#1 -34547315#0 23289049 23185864#2 23185864#3 150018090#0 150018090#1 150018078#7 150018078#8 150018078#9 150018078#10 150018078#11 150018078#0 150018078#1 150018078#2 150018085#0 150018085#1 -43469287#3 -43469287#2 -43469287#1 -43469287#0 -80655879#9 -80655879#8 33832065#0 33832065#1 23276040#1 23276040#2 23276040#3 23276087#1 33832064#0" />
   <route id="route81" edges="32497485#0 32497485#1 80363141#0 80363141#1 23184327#1 23184327#2 23184327#3 23184327#4 23184327#5 34395273#0 34395273#1 34395273#2 34395278#0 34395278#1 34395278#2 34395278#3 93783755 -23288817 -35016111#3 -35016111#2 35016201#0 35016201#1" />
   <route id="route82" edges="32497485#0 32497485#1 80363141#0 80363141#1 80363141#2 23277071#0 23277071#1 23277071#2 23277071#3 23277071#4 80653048#0 80653048#1 149899476#0 149899476#1 149899476#2 150018091#0 150018091#1 80655884#0 80655884#1 80655884#2 80655884#3 80655884#4 80655884#5 132006073 132003833#0 132003833#1 132003832 131881828#0 23295215#0 34547753 34549675#0 33831417#3" />
   <route id="route83" edges="32497485#0 -34547316 -34547315#1 -34547315#0 23289049 23185864#2 23185864#3 150018090#0 150018090#1 150018078#7 150018078#8 150018078#9 150018078#10 150018078#11 150018078#0 150018078#1 150018078#2 150018085#0 150018085#1 -43469287#3 -43469287#2 -43469287#1 -43469287#0 33831422#0 33831422#1" />
   <route id="route84" edges="32497485#0 32497485#1 80363141#0 80363141#1 80363141#2 23184329 25695583 -41277870#1 -41277870#0 28771409#0 28771409#1 28771409#2 23277314#0 23277314#1 23277314#2 23277314#3 23189124#0 23189124#1 23189124#2 23189124#3 23189124#4 23189124#5 23277434 23297094 40874943#0 40874943#1 40874943#2" />
   <route id="route85" edges="32497485#0 32497485#1 80363141#0 80363141#1 80363141#2 23184329 25695583 -41277870#1 -41277870#0 28771409#0 28771409#1 28771409#2 23277314#0 23277314#1 23277314#2 23277314#3 23189124#0 31759743#0 31759743#1 31759743#2 31759743#3 31759743#4 -108140491#12 -39977436#2 148696971#0 148696971#1 -148696903#3 -148696903#2 148696982#0 108140491#2 40101273#0 40101273#1" />
   <route id="route86" edges="32497485#0 32497485#1 80363141#0 80363141#1 80363141#2 23184329 25695583 -41277870#1 -41277870#0 28771409#0 28771409#1 28771409#2 23277314#0 23277314#1 23277314#2 23277314#3 23189124#0 31759743#0 31759743#1 31759743#2 31759743#3 31759743#4 -108140491#12 -39977436#2 148696971#0 148696971#1 -148696903#3 -148696903#2 148696982#0 -108140491#1 56061736#1 148696903#0" />
   <route id="route87" edges="32497485#0 32497485#1 80363141#0 80363141#1 80363141#2 23184329 25695583 -41277870#1 -41277870#0 28771409#0 28771409#1 28771409#2 23277314#0 23277314#1 23277314#2 23277314#3 23189124#0 31759743#0 31759743#1 31759743#2 31759743#3 31759743#4 -108140491#12 -39977436#2 148696971#0 148696971#1 -148696903#3 -148696903#2 148696982#0 108140491#2 40101273#0 -40101275#1" />
   <route id="route88" edges="32497485#0 -34547316 -34547315#1 -34547315#0 23289049 23185864#2 23185864#3 150018090#0 150018090#1 150018078#7 150018078#8 150018078#9 150018078#10 150018078#11 150018078#0 150018078#1 150018078#2 150018085#0 150018085#1 -43469287#3 -43469287#2 -43469287#1 -43469287#0 -80655879#9 -80655879#8 -80655879#7 -80655879#6 -80655879#5 -80655879#4 -80655879#3 -80655879#2 -80655879#1" />
   <route id="route89" edges="32497485#0 -34547316 -34547315#1 -34547315#0 23289049 23185864#2 23185864#3 150018090#0 150018090#1 150018078#7 150018078#8 150018078#9 150018078#10 150018078#11 150018078#0 150018078#1 150018078#2 150018085#0 150018085#1 -43469287#3 -43469287#2 -43469287#1 -43469287#0 -80655879#9 -80655879#8 -80655879#7 -80655879#6 -80655879#5 -80655879#4 -33832064#2 -33832064#1 -33832072#1" />
   <route id="route90" edges="32497485#0 32497485#1 80363141#0 80363141#1 80363141#2 23184329 25695583 -41277870#1 -41277870#0 28771409#0 28771409#1 28771409#2 23277314#0 23277314#1 23277314#2 23277314#3 23189124#0 31759743#0 31759743#1 31759743#2 31759743#3 31759743#4 -108140491#12 -39977436#2 148696971#0 148696971#1 -148696903#3 -148696903#2 148696982#0 148696982#1 40101275#0 148696972#0" />
   <route id="route91" edges="32497485#0 -34547316 -34547315#1 -34547315#0 23289049 23185864#2 23185864#3 150018090#0 150018090#1 150018078#7 150018078#8 150018078#9 150018078#10 150018078#11 150018078#0 150018078#1 150018078#2 150018085#0 150018085#1 -43469287#3 -43469287#2 -43469287#1 -43469287#0 -80655879#9 -80655879#8 33832065#0 33832065#1 23276040#1 23276040#2 23276040#3 23276087#1 32242885#0" />
   <route id="route92" edges="32497485#0 32497485#1 80363141#0 80363141#1 80363141#2 23184329 25695583 -41277870#1 -41277870#0 28771409#0 28771409#1 28771409#2 23277314#0 23277314#1 23277314#2 23277314#3 23189124#0 31759743#0 31759743#1 31759743#2 31759743#3 31759743#4 31759743#5 31759743#6 31759743#7 31759743#8 31759743#9 -39673908#4 -39673908#3 -39673908#2 148704597#0 148704597#1" />
   <route id="route93" edges="32497485#0 32497485#1 80363141#0 80363141#1 80363141#2 23184329 25695583 -41277870#1 -41277870#0 28771409#0 28771409#1 28771409#2 23277314#0 23277314#1 23277314#2 23277314#3 23189124#0 31759743#0 31759743#1 31759743#2 31759743#3 31759743#4 -108140491#12 -39977436#2 148696971#0 148696971#1 -148696903#3 -148696903#2 148696982#0 148696982#1 40101275#0 40101275#1" />