<routes xmlns:xsi="http://www.w3.org/2001/XMLSchema-instance" xsi:noNamespaceSchemaLocation="http://sumo.dlr.de/xsd/routes_file.xsd">
    <route edges="27108506#0 27108506#1 27108506#2 27108506#3 27108506#4 135982507#3 135982507#4 135982526#0 135982526#1 135982514 135982510 135982486#0 135982486#1 27235474 135982515#0 135982515#1 135982515#2 135982515#3 135982515#4 135982515#5 135982515#6 135982515#7 135982515#8 135982515#9 135982515#10 135982515#11 135982494 135982504#0 135982495 135982482#0 135982482#1 135982482#2 135982482#3 135982490 135982477 -135982477" id="route1" />

    <route edges="41728725#1 41728725#2 -28302772#2 -28302772#1 -28302772#0 82549436#0 82549436#1 82549437#0 82549437#1 35901454#0 35901454#1 -35901453#3 35487552#0 35487552#1 35898872#3 35898872#4 35898872#5 35898872#6 23290288#0 23290288#1 23290288#2 22757706#13 22757706#14 22757706#15 22757706#16 23290069#0 23290069#1 23290069#2 23290069#3 23289967#3 23289967#4 23289967#5 23289967#6 23289967#7 23289967#8 23289967#9 34522500#0 34522500#1 23288945#3 23288945#4 23288945#5 34524636 23288960#0 23288960#1 23288960#2 23288960#3 23288960#4 131881828#0 131881828#1 131881828#2 23288761#0 23288761#1 131881840#0 23296622#0 23296622#1 -23296625" id="route2" />

    <route edges="36954649#2 -36954649#2 -36954649#1 -36954649#0 -40872976#4 -40872976#3 -40872976#2 -40872976#1 -40872976#0 40874980#2 40874980#3 40872975#0 40872975#1 40872975#2 40872975#3 77960510#0 77960510#1 -32003370#1 -32003370#0 -24260996 -23452985#2 -23452985#1 -23452985#0 43205393#1 23453044#0 23453044#1 23453044#2 23453044#3 23453044#4 33831608 23288787#3 23288767#0 23288767#1 23288767#2 23288767#3 23288767#4 23288767#5 23288767#6 23288767#7 23288767#8 23277071#0 23277071#1 23277071#2 23277071#3 23277071#4 80653048#0 80653048#1 149899476#0 149899476#1 149899476#2 150018091#0 150018091#1 80655884#0 80655884#1 80655884#2 80655884#3 80655884#4 80655884#5 132006073 132003833#0 132003833#1 23288757#0 23288757#1 23288757#2 23288757#3 23288757#4 23288757#5 34524852#0 23289608#0 23289608#1 23289608#2 23289608#3 23289608#4 23289817#0 23289817#1 23289817#2 23289817#3 119742500#0 119742500#1 26256667#0 -108830918#1 -108830918#0 26256817 108831007#0 26256824#0 26256824#1 26256666#1" id="route3" />

    <route edges="23296246 150052400#0 150052400#1 150052400#2 -49405052#1 -49405052#0 23296227#0 23296227#1 150076246#0 150076246#1 33747684 33747765#0 33747765#1 33747765#2 33747765#3 33747765#4 33747765#5 23288872#4 135982516#0 135982516#1 135982516#2 135982489 135982511#0 135982511#1 135982511#2 135982530 23288915 135982488#0 135982488#1 135982476#0 135982476#1 135982476#2 135982476#3 135982476#4 23295986#0 23295986#1 23288931#0 23288931#1 23288931#2 23288931#3 33523402 83202926#0 83202926#1 83202926#2 83202926#3 83202926#4 83202926#5 96199140#0 96199140#1 96199140#2 96199140#3 96199140#4 96199140#5 83202925#0 83202925#1 82549437#0 82549437#1" id="route4" />

    <route edges="-23296296#1 -23296296#0 23296227#1 150076246#0 150076246#1 33747684 33747765#0 33747765#1 33747765#2 150029324 23288888#2 23288888#3 23288888#4 23288868 83078456#0 83078456#1 149955204 23183655#0 23183655#1 23183655#2 23183655#3 23183655#4 23183655#5 23183655#6 23183655#7 23183655#8 23183655#9 23183655#10 23183655#11 23183655#12 23183655#13 23271667#0 -47004755#2+23271667#1 -47004755#1+23271667#2 -47004755#0 -47004755#3" id="route5" />

    <route edges="-23454212#4 -55527468#4 -55527468#3 -55527468#2 -55527468#1 -55527468#0 -31826226 -108300603#3 -108300603#2 -108300603#1 -108300603#0 -108300601 -119742504#8 -119742504#7 31743230 -41277853#3 -41277853#2 -41277853#1 -41277853#0 -23443892#2 -23443892#1 -23443892#0 132106767#0 132106767#1 23443908 23453927 23453926#0 23453926#1 132106753#0 132106753#1 -39841968#2 -39841968#1 -39841968#0 -39673914#10 -39673914#9 -39673914#8 -39673914#7 -39673914#6 -39673914#5 -39673914#4 -39673914#3 -39673914#2 -39673914#1 -39673914#0 80653044#0 80653044#1 80653044#2 102946820#0 102946820#1 102946820#2 102946820#3 102946820#4" id="route6" />

    <route edges="49403726#5 -23296247 23275323#12 23275323#13 23275370#0 23275370#1 23275370#2 23275370#3 23275370#4 23275370#5 55302014#0 55302014#1 55302014#2 -31743212#1 -31743212#0 23275345#0 23275345#1 23275345#2 23275345#3 23275345#4 23210836#0 23210836#1 23210836#2 77955974 23288787#0 23288787#1 23288787#2 23288787#3 -23332076#1 -23332076#0 23511097 -39673908#9 -39673908#8 -39673908#7 -39673908#6 -39673908#5 -39673908#4 -39673908#3 -39673908#2 -39673908#1 -39673908#0 23578528#0 23578528#1 77960512#3 23277561#0 23277561#1 23277561#2 23277561#3 23277561#4 23277561#5 23277561#6 23277561#7 23277561#8 23277561#9 23277411#0" id="route7" />

    <route edges="23621681#6 41277857#4 23815777 23815790#0 23815790#1 23815790#2 56870101 56870092#0 56870092#1 56870092#2 56870092#3 77960511 40874774 40874704#0 40874704#1 40874704#2 77960512#1 77960512#2 77960512#3 23277561#0 23277561#1 23277561#2 23277561#3 23277561#4 23277561#5 44611178#0 44611178#1 44611178#2" id="route8" />

    <route edges="-23296623#0 23296623#0 23296623#1 23296623#2 131881840#0 131881840#1 131881840#2 131881840#3 131881840#4 43469290 43469291#0 43469291#1 131881836#0 131881836#1 131881836#2 131881836#3 131881836#4 82549442#0 82549442#1 82549435#0 82549435#1 23184327#0 23184327#1 23184327#2 23184327#3 23184327#4 23184327#5 34395273#0 34395273#1 34395273#2 34395278#0 34395278#1 34395278#2 34395278#3 93783755 23288823#0 23288823#1 23288823#2 23213150#0 23213150#1 23213150#2 32064423 149955205#0 149955205#1 149955205#2 149955205#3 -23275323#13 -23275323#12 -23275323#11 -23275323#10 -23275323#9 -23275323#8 -23275323#7 -23275323#6 -23275323#5 -23275323#4 -23275323#3" id="route9" />

    <route edges="30893716 30893699#1 132262802#1 26973914#1 26973914#2 135982476#2 135982476#3 135982476#4 23295986#0 23295986#1 23288931#0 23288931#1 23288931#2 23288931#3 23837909#0 23837909#1 23837909#2 23837909#3 23837909#4 23288945#0 23288945#1 23288945#2 23288945#3 23288945#4 23288945#5 34524636 23288960#0 23288960#1 23288960#2 23288960#3 23288960#4 131881828#0 131881828#1 131881828#2 23288761#0 23288761#1 131881840#0 131881840#1 131881840#2 148678210#6 34547601 23296587#0" id="route10" />

    <route edges="23275370#4 23275370#5 55302014#0 55302014#1 55302014#2 -31743212#1 -31743212#0 23275345#0 23275345#1 23275345#2 23275345#3 23275345#4 23210836#0 23210836#1 23210836#2 77955974 23288787#0 23288787#1 23288787#2 23288787#3 23288767#0 23288767#1 23288767#2 23288767#3 23288767#4 23288767#5 23288767#6 23288767#7 23288767#8 23277071#0 23277071#1 23277071#2 23277071#3 23277071#4 80653048#0 80653048#1 149899476#0 149899476#1 149899476#2 150018091#0 150018091#1 80655884#0 80655884#1 80655884#2 80655884#3 80655884#4 80655884#5 132006073 132003833#0 132003833#1 23288757#0 23296608#0 23296608#1 23296608#2 63067956#0 63067956#1" id="route11" />

    <route edges="40504392#0 40504392#1 40504392#2 82789384#3 82789384#4 -102946820#5 -102946820#4 -102946820#3 -102946820#2 -102946820#1 -102946820#0 -80653044#2 -80653044#1 -80653044#0 39673914#0 39673914#1 -82672748#2 -82672748#1" id="route12" />

    <route edges="23289836#2 23289636#1 23289636#2 23289636#3 23289636#4 23289636#5 23289637#0 23291373#4 23291373#5 23289967#0 23289967#1 23289967#2 23289967#3 23289967#4 23289967#5 23289967#6 23289967#7 23289967#8 23289967#9 34522500#0 34522500#1 23288945#3 23288945#4 23288945#5 34524878 33832076 43469298#0 33831424 34550242#0 33831421#0 33831421#1 33831421#2 33831421#3 33831421#4 33831421#5 80655879#9 33831426#0 -33831426#0" id="route13" />

    <route edges="49403725#1 49403725#2 49403725#3 98387481#0 98387481#1 98387481#2 98387481#3 135982515#4 150026666 23296215 33747765#0 33747765#1 33747765#2 150029324 23288888#2 23288888#3 23288888#4 23288868 83078456#0 83078456#1 23210836#0 23210836#1 23210836#2 77955974 23288787#0 23288787#1 23288787#2 23288787#3 23288767#0 23288767#1 23288767#2 23288767#3 23288767#4 23288767#5 23288767#6 23288767#7 23288767#8 23184329 25695583 -41277870#1 -41277870#0 28771409#0 28771409#1 28771409#2 23277314#0 23277314#1 23277314#2 23277314#3 23189124#0 31759743#0 23277411#5 40148696" id="route14" />

    <route edges="25155123 39841968#0 39841968#1 39841968#2 23443918#0 23443918#1 -23453926#1 -23453926#0 -23453927 -23443908 23411093#0 23411093#1 23411093#2 23443892#0 23443892#1 23443892#2 41277853#0 41277853#1 41277853#2 41277853#3 32497947 -119742504#5 -119742504#4 -119742504#3 -119742504#2 -119742504#1 -119742504#0 -31743212#1 -31743212#0 24148583 55302016#0 55302016#1 55302016#2 -32479531 -23296211 33747684 33747765#0 33747765#1 33747765#2 33747765#3 33747765#4 33747765#5 23288872#4 135982516#0 135982516#1 135982516#2 135982489 135982511#0 135982511#1 135982511#2 135982530 23288915 135982488#0 135982488#1 135982476#0 135982476#1 135982476#2 135982476#3 135982476#4 23295986#0 -23295984#1 -23295984#0 -31322298#17 -31322298#16 -31322298#15 -31322298#14 -31322298#13" id="route15" />

    <route edges="34394275 -22880342#6 -22880342#5 -22880342#4 -22880342#3 -22880342#2 -22880342#1 -22880342#0 -93783754#1 -93783754#0 23288823#0 23288823#1 23288823#2 23213150#0 23213150#1 23213150#2 32064423 149955205#0 149955205#1 149955205#2 149955205#3 23296246 150052400#0 150052400#1 150052400#2 150052402#0 23296318#0 23296318#1 132106763#2 23296329#0 23296329#1" id="route16" />

    <route edges="40507284#0 -40507282#1 82789384#2 82789384#3 82789384#4 -102946820#5 -102946820#4 -102946820#3 -102946820#2 -102946820#1 -102946820#0 -80653044#2 -80653044#1 -80653044#0 -40872976#4 -40872976#3 -40872976#2 -40872976#1 -40872976#0 40874980#2 40874980#3 40872975#0 40872975#1 40872975#2 40872975#3 77960510#0 77960510#1 -32003370#1 -32003370#0 -24260996 -23452985#2 -23452985#1 -23452985#0 43205393#1 23453044#0 23453044#1 23453044#2 23453044#3 23453044#4 33831608 23288787#3 23288767#0 23288767#1 23288767#2 23288767#3 23288767#4 23288767#5 23288767#6 23288767#7 23288767#8 23277071#0 23277071#1 23277071#2 23277071#3 23277071#4 80653048#0 80653048#1 149899476#0 149899476#1 149899476#2 150018091#0 150018091#1 80655884#0 80655884#1 80655884#2 80655884#3 80655884#4 80655884#5 132006073 132003833#0 132003833#1 23288757#0 23288757#1 23288757#2 23288757#3 23288757#4 23288757#5 34524852#0 34524852#1 23288957#0 23288957#1 23288957#2 23288957#3 23288957#4 23288944#0 23288944#1 23288944#2 23288944#3 23288944#4 23288944#5 83202926#0 83202926#1 83202926#2 83202926#3 83202926#4 83202926#5 96199140#0 96199140#1 96199140#2 96199140#3 96199140#4 96199140#5 83202925#0 83202925#1 82549437#0 82549437#1 35901454#0" id="route17" />

    <route edges="-23291001#9 -23291001#8 -23291001#7 -23291001#6 -23291001#5 -23291001#4 -23291001#3 -23291001#2 -23291001#1 -23291001#0 23276959#2 23276959#3 23276959#4 22757706#0 22757706#1 22757706#2 22757706#3 22757706#4 22757706#5 22757706#6 22757706#7 22757706#8 22757706#9 22757706#10 22757706#11 22757706#12 22757706#13 22757706#14 22757706#15 22757706#16 22757706#17 22757706#18 22757706#19 22757706#20 22757706#21 22757706#22 22757706#23 22757706#24 22757706#25 22757706#26 22757706#27 22757706#28 22757706#29 22757706#30 22757706#31 22757706#32 23288944#0 23288944#1 23288944#2 23288944#3 23288944#4 23288944#5 23837911#0 23837911#1 23837911#2 23837911#3 23837911#4 -23295988#1 -23295988#0 23288923#0 23276509#0 135982476#3 34036037#0" id="route18" />

    <route edges="96199140#5 83202925#0 83202925#1 -82549436#1 -82549436#0 28302772#0 28302772#1 28302772#2 -41728725#2 -41728725#1 -41728725#0 41728727 30586080#1" id="route19" />

    <route edges="-23291390#0 23289848 23289636#5 23289637#0 23291373#4 23291373#5 23289967#0 23289967#1 23289967#2 23289967#3 23289967#4 23289967#5 23289967#6 23289967#7 23289967#8 23289967#9 23288957#3 23288957#4 23288944#0 23288944#1 23288944#2 23288944#3 23288944#4 23288944#5 23837911#0 23837911#1 23837911#2 23837911#3 23837911#4 -23295988#1 -23295988#0 23288923#0 23288923#1 23288923#2 132262795 135982518 135982506 135982510 135982486#0 135982486#1 27235474 135982515#0 135982515#1 135982515#2 135982515#3 -98387481#3 -98387481#2 -98387481#1 -98387481#0 27381987#0 27381987#1 27381988" id="route20" />

    <route edges="32566032#1 32566032#2 32566032#3 32566069 32003440 32003445 23275345#0 23275345#1 23275345#2 23275345#3 23275345#4 23210836#0 23210836#1 23210836#2 23288817 93783754#0 93783754#1 22880342#0 22880342#1 22880342#2 22880342#3 22880342#4 22880342#5 22880342#6 23189252#0 23189252#1 23189252#2 23189252#3 23189266#0 23189266#1 23189266#2 32241968#0 32241701#0 32241701#1 32241701#2 31127075#0 31127075#1" id="route21" />

    <route edges="-52128464 23289848 23289636#5 23289637#0 23291373#4 23291373#5 23289967#0 23289967#1 23289967#2 23289967#3 23289967#4 23289967#5 23289967#6 23289967#7 23289967#8 23289967#9 34522500#0 34522500#1 23288945#3 23288945#4 23288945#5 34524636 23288960#0 23288960#1 23288960#2 23288960#3 23288960#4 131881828#0 131881828#1 131881828#2 23288761#0 23288761#1 131881840#0 131881840#1 131881840#2 131881840#3 131881840#4 43469290 43469291#0 43469291#1 131881836#0 131881836#1 131881836#2 131881836#3 131881836#4 82549442#0 82549442#1 82549435#0 82549435#1 23184327#0 23184327#1 23184327#2 23184327#3 23184327#4 23184327#5 34395273#0 34395273#1 34395273#2 34395278#0 34395278#1 34395278#2 34395278#3 23275401#0 23275401#1 23275401#2 23275401#3 43205393#3 43205393#4 43205393#0 23452985#0 23452985#1 23452985#2 24260996 32003370#0 32003370#1 23621960#0 23621960#1 23621960#2 41277857#0 41277857#1 41277857#2 23443899 24589436#0 24589436#1 24589437#0 24589437#1 24589437#2 24589437#3 24589437#4 24589437#5 24589437#6 24589437#7 24589437#8 24589437#9 24589437#10 119742504#0 119742504#1 119742504#2 119742504#3 119742504#4 119742504#5 119742504#6 119742504#7 119742504#8 55467222#0 55467222#1 55467222#2" id="route22" />

    <route edges="98387481#2 98387481#3 135982515#4 150026666 23296215 33747765#0 33747765#1 33747765#2 33747765#3 33747765#4 33747765#5 23288872#4 135982516#0 135982516#1 135982516#2 135982489 135982511#0 135982511#1 135982511#2 135982530 23288915 135982488#0 135982488#1 135982476#0 135982476#1 135982476#2 135982476#3 135982476#4 23295986#0 23295986#1 23288931#0 23288931#1 23288931#2 23288931#3 33523402 83202926#0 83202926#1 83202926#2 83202926#3 83202926#4 83202926#5 96199140#0 96199140#1 96199140#2 96199140#3 40062856#0 40062856#1 -96199132 -35898872#9 35710332 35710329#0 35710330 22757706#18 22757706#19 35916520" id="route23" />

    <route edges="80655884#0 80655884#1 80655884#2 23296587#2 131881840#2 131881840#3 131881840#4 43469290 43469291#0 43469291#1 131881836#0 131881836#1 131881836#2 131881836#3 131881836#4 82549442#0 82549442#1 82549435#0 82549435#1 23184327#0 23184327#1 23184327#2 23184327#3 23184327#4 23184327#5 34395273#0 34395273#1 34395273#2 34395278#0 34395278#1 34395278#2 34395278#3 23275401#0 23275401#1 23275401#2 23275401#3 43205393#3 43205393#4 43205393#0 23452985#0 23452985#1 23452985#2 24260996 32003370#0 32003370#1 23621960#0 23621960#1 23621960#2 41277857#0 41277857#1 41277857#2 23443899 24589436#0 24589436#1 24589437#0 24589437#1 24589437#2 24589437#3 24589437#4 24589437#5 24589437#6 24589437#7 24589437#8 24589437#9 24589437#10 119742504#0 119742504#1 119742504#2 119742504#3 119742504#4 119742504#5 119742504#6 119742504#7 119742504#8 108300601 108300603#0 108300603#1 55467252#0 55467252#1" id="route24" />

    <route edges="23288888#0 23288888#1 23288888#2 -135982498#0 -150052414#2 -150052414#1 -150052414#0 32479531 149955205#1 149955205#2 149955205#3 -23275323#13 -23275323#12 -23275323#11 -23275323#10 -23275323#9 -23275323#8 -23275323#7 24260992#0 -39673921#2" id="route25" />

    <route edges="23296616#0 -23296616#0 -23296613#1 -23296607#0 -23296535#0 132003833#1 132003832 131881828#0 131881828#1 131881828#2 23288761#0 23288761#1 131881840#0 131881840#1 131881840#2 131881840#3 131881840#4 43469290 43469291#0 43469291#1 131881836#0 131881836#1 131881836#2 131881836#3 131881836#4 82549442#0 82549442#1 82549435#0 82549435#1 23184327#0 23184327#1 23184327#2 23184327#3 23184327#4 23184327#5 34395273#0 34395273#1 34395273#2 34395278#0 34395278#1 34395278#2 34395278#3 23275401#0 23275401#1 23275401#2 23275401#3 43205393#3 43205393#4 43205393#0 23452985#0 23453007#0 23453007#1 23453007#2 32565989#0 32565989#1" id="route26" />

    <route edges="23296318#0 23296318#1 -132106763#1 -132106763#0 132106761#0 132106761#1 132106761#2 132106761#3 -49405052#1 -49405052#0 23296227#0 23296227#1 150076246#0 150076246#1 33747684 33747765#0 33747765#1 33747765#2 33747765#3 33747765#4 33747765#5 23288872#4 135982516#0 135982516#1 135982516#2 135982489 135982511#0 135982511#1 135982511#2 135982530 23288915 135982488#0 135982488#1 135982476#0 135982476#1 135982476#2 135982476#3 135982476#4 23295986#0 23295986#1 23288931#0 23288931#1 23288931#2 23288931#3 23837909#0 23837909#1 23837909#2 23837909#3 23837909#4 23288945#0 23288945#1 23288945#2 23288945#3 23288945#4 23288945#5 34524636 23288960#0 23295287#0 33831419#1 33831417#4" id="route27" />

    <route edges="24234268 61556075#2 135814515 -50076364#3 -50076364#2 44642732#0 44642732#1 -26954878#3 -26954878#2 -26954878#1 -26954878#0 32497919#0 44369309#0 44369309#1 44369309#2 44369309#3 44369309#4 135982490 135982477 135982499#0 135982499#1 27020374#0" id="route28" />

    <route edges="-23291396#3 23291396#3 23291396#4 23291396#5 23291396#6 23291396#7 33830036 23291373#2 23291373#3 23291373#4 23291373#5 23289967#0 23289967#1 23289967#2 23289967#3 23289967#4 23289967#5 23289967#6 23289967#7 23289967#8 23289967#9 34522500#0 34522500#1 23288945#3 23288945#4 23288945#5 34524636 23288960#0 23288960#1 23288960#2 23288960#3 23288960#4 131881828#0 131881828#1 131881828#2 23288761#0 23288761#1 131881840#0 131881840#1 131881840#2 131881840#3 131881840#4 43469290 43469291#0 43469291#1 131881836#0 131881836#1 131881836#2 131881836#3 131881836#4 82549442#0 82549442#1 82549435#0 82549435#1 132262800 23184329 25695583 -41277870#1 -41277870#0 28771409#0 28771409#1 28771409#2 23277314#0 23277314#1" id="route29" />

    <route edges="97822443 -97822443 -23510937#0 -23275323#9 -23275323#8 -23275323#7 -23275323#6 -23275323#5 -26954878#7 -26954878#6 -26954878#5 -26954878#4 -26954878#3 -26954878#2 -26954878#1 -26954878#0 32497919#0 44369309#0 44369309#1 120840494 135982520#3 -97496335#2 -97496335#1 -97496335#0 97496335#0" id="route30" />

    <route edges="30578624#1 39673914#2 39673914#3 39673914#4 39673914#5 39673914#6 39673914#7 39673914#8 39673914#9 39673914#10 39841968#0 39841968#1 39841968#2 23443918#0 23443918#1 -23453926#1 -23453926#0 -23453927 -23443908 23411093#0 23411093#1 23411093#2 23443892#0 23443892#1 23443892#2 -59626769#1 59626771" id="route31" />

    <route edges="27032657#1 27032657#2 23289608#5 23289608#6 23289636#0 23289636#1 23289636#2 23289636#3 23289636#4 23289636#5 23289637#0 23289637#1 108831007#2 26256819#0 26256819#1 -82715344#0" id="route32" />

    <route edges="23288944#0 -23290191#0 23837909#4 23271744 33757835#0 33757835#1 82549439 82549438 23185863#0 23185863#1 82549445#0 82549445#1 -32942500#1 -32942500#0 -32479333#4 -32479333#3 -32479333#2 -32479333#1 -32479333#0 -32942505#7 -32942505#6 -32942505#5 -32942505#4 -32942505#3 -32942505#2 -32942505#1 -32942505#0 -82544186 8116114 11480374#0 11480374#1 11480374#2 11480374#3 11480374#4 11480374#5 11480374#6 -23271660#2 -23271660#1 -23271660#0 30326493 46996340 23183655#12 23183655#13 23271667#0 47004755#3" id="route33" />

    <route edges="44613009 -44613009 -23277481#2 -23277481#1 -23277481#0 23277434 32498338 32497676 23189200#0 23189200#1 150052408 37931741#0 37931741#1 37931741#2 37931741#3 132262789 132262790 23277216#0 23277216#1 23277216#2 41277870#0 41277870#1 -25695583 -23184329 23277071#0 23277071#1 23277071#2 23277071#3 23277071#4 80653048#0 80653048#1 149899476#0 149899476#1 149899476#2 150018091#0 150018091#1 23220063 82544187#0 82544187#1 34547555#0 34547555#1 34547555#2 150018082#0 150018082#1 150018078#10 150018078#11 150018078#0 150018078#1 150018078#2 150018085#0 150018085#1 -43469287#3 -43469287#2 -43469287#1 -43469287#0 -80655879#9 -80655879#8 -80655879#7 -80655879#6 -80655879#5 -80655879#4 -80655879#3 -80655879#2 -80655879#1 -80655879#0 -23253102 -32942500#1 31501819 33760134#0 33760134#1 23296863" id="route34" />

    <route edges="-30840985#1 -30840985#0 30840985#0 30840985#1 31322298#9 31322298#10 31322298#11 31322298#12 31322298#13 31322298#14 31322298#15 31322298#16 31322298#17 23295984#0 23295984#1 23295986#1 23288931#0 23288931#1 23288931#2 23288931#3 23837909#0 23837909#1 23837909#2 23837909#3 23837909#4 23288945#0 23288945#1 23288945#2 23288945#3 23288945#4 23288945#5 34524636 23288960#0 23288960#1 23288960#2 23288960#3 23288960#4 131881828#0 131881828#1 131881828#2 23288761#0 23288761#1 131881840#0 131881840#1 131881840#2 131881840#3 131881840#4 43469290 43469291#0 43469291#1 131881836#0 131881836#1 131881836#2 131881836#3 131881836#4 82549442#0 82549442#1 82549435#0 82549435#1 23184327#0 23184327#1 23184327#2 23184327#3 23184327#4 23184327#5 34395259#0 34395259#1 -23332076#1 -23332076#0 23511097 -39673908#9 -39673908#8 -39673908#7 -39673908#6 -39673908#5 -39673908#4 -39673908#3 -39673908#2 -39673908#1 -39673908#0 36774389#0 36774389#1 121294672#0 39784865#1 56061727#0" id="route35" />

    <route edges="39783615#1 -24266527 39673908#5 39673908#6 39673908#7 39673908#8 39673908#9 -23511097 23332076#0 23332076#1 23288767#0 23288767#1 23288767#2 23288767#3 23288767#4 23288767#5 23288767#6 23288767#7 23288767#8 23277071#0 23277071#1 23277071#2 23277071#3 23277071#4 80653048#0 80653048#1 149899476#0 149899476#1 149899476#2 150018091#0 150018091#1 23220063 82544187#0 82544187#1 34547555#0 34547555#1 34547555#2 150018082#0 150018082#1 150018078#10 150018078#11 150018078#0 150018078#1 150018078#2 150018085#0 150018085#1 -43469287#3 -43469287#2 -43469287#1 -43469287#0 -80655879#9 -80655879#8 -80655879#7 -80655879#6 -80655879#5 -80655879#4 -80655879#3 -80655879#2 -80655879#1 -80655879#0 -23253102 -82549445#1 82549445#1" id="route36" />

    <route edges="132106763#6 -132106763#6 -132106763#5 -132106763#4 -132106763#3 -132106763#2 -132106763#1 -132106763#0 132106761#0 132106761#1 132106761#2 132106761#3 -150052400#2 -150052400#1 -150052400#0 -23296246 23275370#0 23275370#1 23275370#2 23275370#3 23275370#4 23275370#5 55302014#0 55302014#1 55302014#2 -24589437#10 -24589437#9 -24589437#8 -24589437#7 -24589437#6 -24589437#5 -24589437#4 -24589437#3 -24589437#2 -24589437#1 -24589437#0 -24589436#1 -24589436#0 -23443899 41277857#3 41277857#4 23815777 23815790#0 23815790#1 23815790#2 56061730#0 56061730#1 56061729#0 56061729#1" id="route37" />

    <route edges="131881840#0 131881840#1 131881840#2 131881840#3 131881840#4 43469290 43469291#0 43469291#1 131881836#0 131881836#1 131881836#2 131881836#3 131881836#4 82549442#0 82549442#1 82549435#0 82549435#1 23184327#0 23184327#1 23184327#2 23184327#3 23184327#4 23184327#5 34395273#0 34395273#1 34395273#2 34395278#0 34395278#1 34395278#2 34395278#3 23275401#0 23275401#1 23275401#2 23275401#3 43205393#3 43205393#4 43205393#0 23452985#0 23452985#1 23452985#2 24260996 32003370#0 32003370#1 23621960#0 23621960#1 23621960#2 31785433 23622055#0 23622055#1 40874980#5 40874980#0 25155131#0 25155131#1 39839061#0 39839061#1 39839061#2" id="route38" />

    <route edges="32566008#2 23453129#1 23453129#2 -32064529 23275345#2 23275345#3 23275345#4 23210836#0 23210836#1 23210836#2 77955974 23288787#0 23288787#1 23288787#2 23288787#3 23288767#0 23288767#1 23288767#2 23288767#3 23288767#4 23288767#5 23288767#6 23288767#7 23288767#8 23277071#0 23277071#1 23277071#2 23277071#3 23277071#4 80653048#0 80653048#1 149899476#0 149899476#1 149899476#2 150018091#0 150018091#1 80655884#0 80655884#1 80655884#2 23296587#2 131881840#2 131881840#3 131881840#4" id="route39" />

    <route edges="150142612 -150142612 25705444 23291584#6 23291584#7 23291584#8 23291584#0 23291560 -23291545 -52128467#0 23289956#0 23289956#1 23289956#2 23289956#3 132648780#0 23289636#3 23289636#4 23289636#5 23289637#0 23291373#4 23291373#5 23289967#0 23289967#1 23289967#2 23289967#3 23289967#4 23289967#5 23289967#6 23289967#7 23289967#8 23289967#9 34522500#0 34522500#1 23288945#3 23288945#4 23288945#5 34524636 23288960#0 23288960#1 23288960#2 23288960#3 23288960#4 131881828#0 131881828#1 131881828#2 23288761#0 23288761#1 131881840#0 131881840#1 131881840#2 131881840#3 131881840#4 43469290 43469291#0 43469291#1 131881836#0 131881836#1 131881836#2 131881836#3 131881836#4 82549442#0 82549442#1 82549435#0 82549435#1 23184327#0 23184327#1 23184327#2 23184327#3 23184327#4 23184327#5 34395273#0 34395273#1 34395273#2 34395278#0 34395278#1 34395278#2 34395278#3 23275401#0 23275401#1 23275401#2 23275401#3 43205393#3 43205393#4 43205393#0 23452985#0 23452985#1 23452985#2 24260996 32003370#0 32003370#1 23621960#0 23621960#1 23621960#2 31785433 23815777 23815790#0 23815790#1 23815790#2" id="route40" />

    <route edges="23184239 32242282#0 22880356 -22880342#2 -22880342#1 -22880342#0 -93783754#1 -93783754#0 -23288817 77955974 23275401#1 23275401#2 23275401#3 43205393#3 43205393#4 43205393#0 23452985#0 23452985#1 23452985#2 24260996 32003370#0 32003370#1 23621960#0 23621960#1 23621960#2 31785433 23622055#0 23622055#1 40874980#5 40874980#0 40874980#1 40872976#0 40872976#1 40872976#2 40872976#3 40872976#4 36954649#0 36954649#1 36954649#2 44614140#0 44614140#1 44614140#2 59854990 115842636" id="route41" />

    <route edges="59626762#0 -59626762#0 41277853#2 41277853#3 32497947 -119742504#5 -119742504#4 -119742504#3 -119742504#2 -119742504#1 -119742504#0 -31743212#1 -31743212#0 24148583 55302016#0 55302016#1 55302016#2 -32479531 -23296211 33747684 33747765#0 33747765#1 33747765#2 33747765#3 33747765#4 33747765#5 23288872#4 135982516#0 135982516#1 135982516#2 135982489 135982511#0 135982511#1 135982511#2 135982530 23288915 135982488#0 135982488#1 135982476#0 135982476#1 135982476#2 135982476#3 135982476#4 23295986#0 -23295984#1 -23295984#0 -31322298#17 -31322298#16 -31322298#15 -31322298#14 -31322298#13 -31322298#12 -31322298#11 -31322298#10 31322298#10" id="route42" />

    <route edges="27020374#0 27020374#1 27089365#1 27108377 97496335#0 97496335#1 97496335#2 135982487#0 135982487#1 32497919#0 32497919#1 32497919#2 32497919#3 32497919#4 32497919#5 32497919#6 32497919#7 132106761#0 132106761#1 132106761#2 132106761#3 -49405052#1 -49405052#0 23296227#0 23296227#1 150076246#0 150076246#1 33747684 33747765#0 33747765#1 33747765#2 150029324 23288888#2 135982498#1 135982498#2 135982498#3 135982509 135982519 135982505#0 135982505#1 135982505#2" id="route43" />

    <route edges="30814285 119290902#0 30814352 103538896 30824033#0 30824033#1 30824033#2 23288931#3 23837909#0 23837909#1 23837909#2 23837909#3 23837909#4 23288945#0 23288945#1 23288945#2 23288945#3 23288945#4 23288945#5 34524636 23288960#0 23288960#1 23288960#2 23288960#3 23288960#4 131881828#0 131881828#1 131881828#2 23288761#0 23288761#1 131881840#0 131881840#1 131881840#2 131881840#3 131881840#4 43469290 43469291#0 43469291#1 131881836#0 131881836#1 131881836#2 131881836#3 131881836#4 82549442#0 82549442#1 82549435#0 82549435#1 23184327#0 23184327#1 23184327#2 23184327#3 23184327#4 23184327#5 34395259#0 34395259#1 -23332076#1 -23332076#0 23511097 -39673908#9 -39673908#8 -39673908#7 -39673908#6 -39673908#5 24266527 41277864 41277858#0 41277858#1 41277858#2 -41277858#2 -41277858#1" id="route44" />

    <route edges="-44642732#1 44642732#1 -26954878#3 -26954878#2 -26954878#1 -26954878#0 32497919#0 32497919#1 32497919#2 32497919#3 32497919#4 32497919#5 32497919#6 32497919#7 132106761#0 132106761#1 132106761#2 132106761#3 -49405052#1 -49405052#0 23296227#0 23296227#1 150076246#0 150076246#1 33747684 33747765#0 33747765#1 33747765#2 33747765#3 33747765#4 33747765#5 23288872#4 135982516#0 135982516#1 135982516#2 135982489 135982511#0 135982511#1 135982511#2 135982530 23288915 135982488#0 135982488#1 135982476#0 135982476#1 135982476#2 135982476#3 135982476#4 23295986#0 23295986#1 23288931#0 23288931#1 23288931#2 23288931#3 23837909#0 23837909#1 23837909#2 23837909#3 23290191#0 23290191#1 23290195 22757706#32 23288944#0" id="route45" />

    <route edges="-23618117#2 -59855013#1 -59855013#0 39673914#7 39673914#8 39673914#9 39673914#10 39841968#0 39841968#1 39841968#2 23443918#0 23443918#1 -23453926#1 -23453926#0 -23453927 -23443908 23411093#0 23411093#1 23411093#2 23443892#0 23443892#1 23443892#2 41277853#0 41277853#1 41277853#2 41277853#3 32497947 -119742504#5 -119742504#4 -119742504#3 -119742504#2 -119742504#1 -119742504#0 -31743212#1 -31743212#0 24148583 55302016#0 55302016#1 55302016#2 -32479531 -23296211 33747684 33747765#0 33747765#1 33747765#2 33747765#3 33747765#4 33747765#5 23288872#4 135982516#0 135982516#1 135982516#2 135982489 135982511#0 135982511#1 135982511#2 135982530 23288915 135982488#0 135982488#1 135982476#0 135982476#1 135982476#2 135982476#3 135982476#4 23295986#0 23295984#2 23296952#0 23296952#1 34035752#0 34035752#1 34035752#2 34035539 34035657#0 -23271762#2 23271762#2" id="route46" />

    <route edges="23275873 23296840 23189387#1 -116440051 23189376#2 23189364#2 -43469287#2 -43469287#1 -43469287#0 33831422#0 33831422#1 80655883#0 80655883#1 80655883#2 80655883#3 80655883#4 34550242#2 34550242#3 34550242#4" id="route47" />

    <route edges="41277871#2 41277872 37931741#2 37931741#3 132262789 132262790 23277216#0 23277216#1 23277216#2 41277870#0 41277870#1 -25695583 -23184329 -132262800 23184327#0 23184327#1 23184327#2 23184327#3 23184327#4 23184327#5 34395273#0 34395273#1 34395273#2 34395278#0 34395278#1 34395278#2 34395278#3 93783755 23288823#0 23288823#1 23288823#2 23213150#0 23213150#1 23213150#2 23288872#0 23288872#1 23288872#2 23288872#3 23288872#4 135982516#0 135982516#1 135982516#2 135982489 135982511#0 135982511#1 135982511#2 135982530 23288915 135982500 135982484 132262802#0 132262802#1 -34036609#2 -34036609#1 -34036609#0 30893573 34347629#2 26973914#0" id="route48" />
