<routes xmlns:xsi="http://www.w3.org/2001/XMLSchema-instance" xsi:noNamespaceSchemaLocation="http://sumo.dlr.de/xsd/routes_file.xsd">
    <route edges="E2F2 F2F1 F1F0 F0E0 E0D0 D0C0 C0B0 B0A0 A0A1 A1B1" id="route1" />


    <route edges="C0C1 C1C2 C2C3 C3B3 B3B4 B4C4" id="route2" />


    <route edges="F0E0 E0D0 D0D1 D1D2 D2D3 D3D4 D4E4 E4E3" id="route3" />


    <route edges="G0F0 F0E0 E0D0 D0C0 C0B0 B0B1 B1B2 B2B3 B3B4 B4B5 B5A5 A5A4" id="route4" />


    <route edges="C6D6 D6D5 D5C5 C5B5 B5A5 A5A4 A4A3 A3A2 A2A1" id="route5" />


    <route edges="B4B5 B5C5 C5C4 C4C3 C3D3 D3D4" id="route6" />


    <route edges="A1B1 B1B2 B2B3 B3C3" id="route7" />


    <route edges="E3E2 E2D2 D2C2 C2C3 C3C4 C4C5 C5D5 D5D4" id="route8" />


    <route edges="B4C4 C4C3 C3C2 C2C1 C1C0 C0D0 D0E0 E0E1" id="route9" />


    <route edges="F3F2 F2F1 F1E1 E1D1 D1C1 C1B1 B1A1 A1A0 A0B0" id="route10" />


    <route edges="F3F2 F2E2 E2D2 D2D3 D3D4 D4D5 D5E5 E5E4" id="route11" />


    <route edges="C3C2 C2B2 B2A2" id="route12" />


    <route edges="G4F4 F4E4 E4D4 D4D3 D3C3 C3B3" id="route13" />


    <route edges="A5A6 A6B6 B6B5 B5B4 B4A4 A4A5 A5B5" id="route14" />


    <route edges="F5E5 E5E4 E4E3 E3E2 E2E1 E1E0" id="route15" />


    <route edges="F3F2 F2E2 E2E3 E3E4 E4E5 E5E6 E6F6" id="route16" />


    <route edges="D5C5 C5C6 C6D6 D6E6 E6F6 F6G6 G6G5 G5F5" id="route17" />


    <route edges="C4D4 D4D5 D5D6" id="route18" />


    <route edges="F4F3 F3F2 F2E2 E2E1 E1F1" id="route19" />


    <route edges="F5F6 F6E6 E6E5 E5D5 D5D6 D6E6" id="route20" />


    <route edges="E5E6 E6D6 D6C6 C6B6 B6A6 A6A5 A5A4 A4A3 A3A2 A2B2" id="route21" />


    <route edges="B5A5 A5A4 A4A3 A3B3 B3C3 C3C2 C2C1 C1B1" id="route22" />


    <route edges="A4B4 B4C4 C4C5 C5B5 B5B4" id="route23" />


    <route edges="A5B5 B5B4 B4B3 B3B2 B2B1 B1B0 B0C0 C0C1" id="route24" />


    <route edges="E2E3 E3E4 E4D4 D4C4 C4C3" id="route25" />


    <route edges="C4C5 C5B5 B5B4 B4B3" id="route26" />


    <route edges="B6C6 C6D6 D6E6 E6F6 F6G6 G6G5 G5G4 G4G3 G3F3" id="route27" />


    <route edges="E3D3 D3D2 D2D1 D1E1 E1E2" id="route28" />


    <route edges="B2B3 B3B4 B4B5 B5B6 B6C6 C6D6 D6E6 E6F6" id="route29" />


    <route edges="B2B1 B1C1 C1C2 C2C3 C3C4 C4D4" id="route30" />


    <route edges="G6F6 F6E6 E6E5 E5E4 E4E3 E3E2 E2F2" id="route31" />


    <route edges="D5E5 E5E4 E4F4" id="route32" />


    <route edges="F4G4 G4G3 G3G2 G2F2 F2E2" id="route33" />


    <route edges="B5A5 A5A4 A4A3 A3A2 A2A1" id="route34" />


    <route edges="C2B2 B2B3 B3B4 B4B5 B5B6 B6C6" id="route35" />


    <route edges="B4B3 B3C3 C3D3 D3E3 E3F3 F3G3 G3G2" id="route36" />


    <route edges="F6F5 F5F4 F4F3 F3F2 F2E2 E2D2 D2C2 C2B2" id="route37" />


    <route edges="E3E4 E4D4 D4C4 C4C5 C5C6" id="route38" />


    <route edges="G1G2 G2F2 F2E2 E2D2 D2D1 D1E1" id="route39" />


    <route edges="B6C6 C6C5 C5C4 C4B4 B4B5 B5C5" id="route40" />


    <route edges="D6C6 C6C5 C5B5 B5B6 B6C6" id="route41" />


    <route edges="E0E1 E1F1 F1F0 F0G0 G0G1" id="route42" />


    <route edges="C5D5 D5D4 D4C4 C4B4 B4B5" id="route43" />


    <route edges="G6G5 G5G4 G4F4 F4E4 E4D4 D4D3 D3E3" id="route44" />


    <route edges="A5A6 A6B6 B6B5 B5B4 B4A4 A4A3 A3A2 A2B2" id="route45" />


    <route edges="A6B6 B6C6 C6D6 D6E6 E6E5 E5E4 E4E3 E3E2 E2E1" id="route46" />


    <route edges="F2G2 G2G3 G3G4 G4G5 G5F5 F5E5 E5D5 D5C5 C5C6 C6D6" id="route47" />


    <route edges="A3B3 B3C3 C3C4 C4C5 C5B5" id="route48" />


    <route edges="G6G5 G5G4 G4F4 F4E4 E4D4 D4D5" id="route49" />


    <route edges="G5F5 F5F6" id="route50" />


    <route edges="A0B0 B0C0 C0D0 D0D1 D1D2 D2D3 D3D4 D4D5 D5D6 D6E6 E6E5" id="route51" />


    <route edges="E4E5 E5D5 D5C5" id="route52" />


    <route edges="B6C6 C6C5 C5C4 C4C3 C3C2 C2D2 D2E2 E2F2" id="route53" />


    <route edges="A6B6 B6C6 C6D6 D6D5 D5D4 D4D3 D3D2 D2D1 D1D0 D0E0" id="route54" />


    <route edges="D1D2 D2D3 D3E3 E3F3 F3G3 G3G4 G4F4" id="route55" />


    <route edges="F6F5 F5E5 E5D5 D5C5 C5B5 B5B6 B6C6" id="route56" />


    <route edges="D3D4 D4C4 C4B4 B4B3 B3A3" id="route57" />


    <route edges="G1G2 G2G3 G3G4 G4G5 G5G6 G6F6 F6E6" id="route58" />


    <route edges="C1C2 C2D2 D2E2 E2F2" id="route59" />


    <route edges="E1E2 E2D2 D2C2 C2B2 B2B1 B1C1" id="route60" />


    <route edges="F1F2 F2F3 F3F4 F4F5 F5E5 E5D5 D5C5" id="route61" />


    <route edges="F2E2 E2D2 D2D3 D3D4 D4E4" id="route62" />


    <route edges="A0A1 A1A2 A2B2 B2C2 C2C3" id="route63" />


    <route edges="A1A2 A2B2 B2C2 C2D2 D2E2 E2F2 F2G2 G2G3" id="route64" />


    <route edges="F6F5 F5F4 F4F3" id="route65" />


    <route edges="C1D1 D1D2 D2C2 C2B2 B2A2 A2A3 A3A4" id="route66" />


    <route edges="F6F5 F5F4 F4F3 F3G3 G3G4" id="route67" />


    <route edges="A5A4 A4A3 A3A2 A2B2 B2C2 C2D2 D2E2" id="route68" />


    <route edges="A4A3 A3B3 B3C3 C3D3 D3E3 E3F3 F3F2 F2F1 F1F0" id="route69" />


    <route edges="F1F2 F2E2 E2D2 D2C2 C2B2 B2B1 B1B0 B0C0" id="route70" />


    <route edges="D2D1 D1C1 C1C2 C2C3 C3D3 D3D4 D4D5 D5D6" id="route71" />


    <route edges="B6C6 C6D6 D6E6 E6E5 E5F5 F5F6 F6E6" id="route72" />


    <route edges="D0C0 C0C1 C1C2 C2C3 C3C4 C4B4 B4B3" id="route73" />


    <route edges="D5C5 C5C6 C6D6 D6E6 E6F6" id="route74" />


    <route edges="B3C3 C3C2 C2B2" id="route75" />


    <route edges="G6G5 G5G4 G4F4 F4E4 E4E3 E3E2" id="route76" />


    <route edges="D0E0 E0E1 E1E2 E2E3 E3E4 E4D4 D4C4" id="route77" />


    <route edges="B0B1 B1B2 B2B3 B3B4 B4C4" id="route78" />


    <route edges="C3B3 B3B2 B2B1 B1B0 B0C0 C0D0 D0E0 E0E1" id="route79" />


    <route edges="B5A5 A5A4 A4B4 B4B5" id="route80" />


    <route edges="A4A3 A3A2 A2B2 B2C2 C2D2 D2E2 E2E3" id="route81" />


    <route edges="B5A5 A5A4 A4A3 A3A2 A2A1 A1B1 B1C1 C1D1 D1E1 E1F1 F1G1 G1G0" id="route82" />


    <route edges="F5F6 F6E6 E6D6 D6C6 C6B6 B6A6 A6A5 A5A4 A4A3" id="route83" />


    <route edges="B5B4 B4C4 C4D4 D4D5 D5E5 E5E4 E4D4" id="route84" />


    <route edges="B4B3 B3B2 B2B1 B1A1" id="route85" />


    <route edges="G3F3 F3E3 E3E4 E4E5 E5E6 E6D6 D6D5" id="route86" />


    <route edges="D2D1 D1E1 E1E2 E2F2 F2F1" id="route87" />


    <route edges="F3F2 F2E2 E2D2 D2C2 C2C3 C3B3 B3B2" id="route88" />


    <route edges="A5B5 B5C5 C5C4 C4C3 C3C2 C2C1 C1C0 C0D0 D0D1" id="route89" />


    <route edges="D0C0 C0C1 C1D1 D1D2 D2C2" id="route90" />


    <route edges="E6F6 F6F5 F5F4 F4E4 E4E3" id="route91" />


    <route edges="G5G6 G6F6 F6E6 E6D6 D6C6 C6B6 B6A6 A6A5 A5B5" id="route92" />


    <route edges="C5D5 D5D4 D4D3 D3C3 C3C2" id="route93" />


    <route edges="F5F6 F6E6 E6D6 D6C6 C6B6 B6B5 B5C5" id="route94" />


    <route edges="B3B2 B2C2 C2D2 D2D1 D1D0" id="route95" />


    <route edges="C6D6 D6D5 D5D4 D4D3 D3D2 D2D1 D1D0 D0C0 C0C1" id="route96" />


    <route edges="B5C5 C5D5 D5E5 E5F5 F5G5 G5G4 G4G3 G3G2 G2G1" id="route97" />


    <route edges="D1C1 C1C2 C2D2 D2E2 E2F2 F2F3 F3F4 F4F5 F5F6" id="route98" />


    <route edges="D5D6 D6C6 C6B6 B6A6 A6A5 A5A4 A4A3 A3A2" id="route99" />


    <route edges="G6G5 G5G4 G4F4 F4F5" id="route100" />


    <route edges="G4G5 G5F5 F5F4 F4F3 F3G3 G3G2 G2G1" id="route101" />


    <route edges="F5E5 E5D5 D5C5 C5B5 B5B4 B4B3 B3B2 B2B1" id="route102" />


    <route edges="D2E2 E2E3 E3E4 E4D4 D4C4 C4B4 B4B3" id="route103" />


    <route edges="C5D5 D5D4 D4D3 D3C3 C3B3 B3A3 A3A4" id="route104" />


    <route edges="C4D4 D4E4 E4F4 F4G4 G4G5 G5G6" id="route105" />


    <route edges="B6C6 C6D6 D6E6 E6F6 F6F5 F5F4 F4F3 F3F2 F2F1" id="route106" />


    <route edges="D1D2 D2E2 E2E1 E1E0 E0D0 D0C0" id="route107" />


    <route edges="G4F4 F4F5 F5F6 F6G6 G6G5" id="route108" />


    <route edges="D5E5 E5E6 E6D6" id="route109" />


    <route edges="B2A2 A2A1 A1B1 B1C1 C1C0" id="route110" />


    <route edges="G4G5 G5F5 F5E5 E5E4 E4E3 E3E2 E2E1 E1E0 E0D0" id="route111" />


    <route edges="D5D4 D4D3 D3D2 D2D1 D1D0 D0E0 E0F0 F0G0" id="route112" />


    <route edges="A3A4 A4B4 B4C4 C4D4 D4D3 D3D2 D2D1 D1D0 D0E0 E0E1" id="route113" />


    <route edges="D3D4 D4D5 D5E5 E5F5 F5F4" id="route114" />


    <route edges="B2A2 A2A3 A3A4 A4B4 B4C4 C4D4 D4E4 E4F4 F4G4 G4G3" id="route115" />


    <route edges="A4B4 B4B3 B3B2" id="route116" />


    <route edges="E0F0 F0F1 F1F2 F2F3 F3F4 F4E4 E4E3" id="route117" />


    <route edges="B5B4 B4B3 B3B2 B2C2 C2C1 C1C0 C0B0 B0B1" id="route118" />


    <route edges="G0F0 F0E0 E0D0 D0C0 C0B0 B0B1 B1B2 B2B3 B3B4 B4B5 B5C5" id="route119" />


    <route edges="E0F0 F0F1 F1F2 F2E2 E2D2" id="route120" />


    <route edges="C6D6 D6D5 D5D4 D4D3 D3D2 D2D1 D1D0 D0E0 E0E1" id="route121" />


    <route edges="D4D3 D3E3 E3F3 F3F4 F4G4 G4G3 G3F3" id="route122" />


    <route edges="B4A4 A4A5 A5B5 B5C5 C5D5 D5E5 E5E6 E6D6" id="route123" />


    <route edges="B5B6 B6C6 C6D6 D6D5 D5C5 C5C6" id="route124" />


    <route edges="E4D4 D4D3 D3D2 D2D1 D1C1 C1C2" id="route125" />


    <route edges="C2C1 C1D1 D1E1 E1E2 E2F2 F2F1 F1E1" id="route126" />


    <route edges="A4A5 A5B5 B5C5 C5C4 C4C3 C3C2 C2C1 C1D1 D1D2" id="route127" />


    <route edges="G6G5" id="route128" />


    <route edges="A4A5 A5B5 B5B4 B4B3" id="route129" />


    <route edges="B6C6 C6C5 C5C4 C4C3 C3C2 C2D2 D2E2 E2F2 F2G2 G2G3" id="route130" />


    <route edges="F6F5" id="route131" />


    <route edges="C4C5 C5B5 B5B4 B4B3 B3B2 B2A2" id="route132" />


    <route edges="F4F5 F5E5 E5E6" id="route133" />


    <route edges="E1E2 E2E3 E3E4 E4F4 F4G4 G4G5 G5G6" id="route134" />


    <route edges="E3E2 E2D2 D2C2 C2B2 B2A2 A2A1 A1A0 A0B0" id="route135" />


    <route edges="F3G3 G3G2 G2G1 G1F1 F1E1 E1D1 D1C1 C1C2" id="route136" />


    <route edges="E3F3 F3F4 F4G4 G4G3 G3F3" id="route137" />


    <route edges="B1A1 A1A2 A2B2 B2B1 B1B0 B0A0" id="route138" />


    <route edges="A6A5 A5B5 B5C5 C5D5 D5D6" id="route139" />


    <route edges="C0B0 B0B1 B1C1 C1D1 D1E1 E1E0" id="route140" />


    <route edges="E6D6 D6D5 D5D4 D4C4 C4B4 B4A4" id="route141" />


    <route edges="E2E3 E3D3 D3C3 C3B3 B3B4 B4B5 B5B6 B6C6" id="route142" />


    <route edges="D3C3 C3C2 C2C1 C1D1 D1E1 E1F1 F1G1 G1G0" id="route143" />


    <route edges="F5E5 E5D5 D5C5 C5B5 B5A5 A5A6" id="route144" />


    <route edges="D0C0 C0C1" id="route145" />


    <route edges="A0A1 A1B1 B1C1 C1D1 D1E1 E1F1 F1G1" id="route146" />


    <route edges="E2F2 F2F3 F3F4 F4F5 F5E5 E5D5 D5C5 C5B5 B5B6 B6C6" id="route147" />


    <route edges="F0F1 F1E1 E1D1 D1D2 D2D3 D3D4 D4D5 D5D6" id="route148" />


    <route edges="D0C0 C0B0 B0B1 B1A1 A1A0 A0B0" id="route149" />


    <route edges="A4A5 A5A6 A6B6 B6C6 C6D6 D6E6 E6F6 F6G6" id="route150" />


    <route edges="G1F1 F1F2 F2F3 F3F4 F4F5 F5E5 E5D5 D5D4" id="route151" />


    <route edges="F4F5 F5E5 E5E4 E4E3 E3E2 E2E1 E1E0 E0D0" id="route152" />


    <route edges="B1B2 B2C2 C2C1 C1B1 B1B0 B0C0" id="route153" />


    <route edges="C1D1 D1E1 E1F1 F1F2 F2G2 G2G1 G1F1" id="route154" />


    <route edges="F2G2 G2G3 G3G4 G4F4 F4F5 F5F6" id="route155" />


    <route edges="G1F1 F1E1 E1E2 E2E3 E3E4 E4D4 D4C4 C4B4 B4B3" id="route156" />


    <route edges="B5C5 C5C6 C6B6 B6A6 A6A5" id="route157" />


    <route edges="F2F1 F1E1 E1E2 E2E3 E3E4 E4E5 E5E6 E6F6 F6G6" id="route158" />


    <route edges="C6B6 B6B5 B5C5 C5D5 D5E5 E5E4 E4E3 E3E2 E2D2" id="route159" />


    <route edges="B1C1 C1D1 D1E1 E1F1 F1G1 G1G2 G2G3" id="route160" />


    <route edges="F5G5 G5G4" id="route161" />


    <route edges="F3F4 F4F5 F5F6 F6G6" id="route162" />


    <route edges="A1B1 B1C1 C1D1 D1E1 E1F1 F1F0 F0E0" id="route163" />


    <route edges="C2D2 D2E2 E2F2 F2G2 G2G3" id="route164" />


    <route edges="F3E3 E3E4 E4E5 E5F5 F5G5" id="route165" />


    <route edges="F3F4 F4E4 E4D4 D4C4 C4B4 B4B5 B5B6 B6C6" id="route166" />


    <route edges="F2F3 F3F4 F4F5 F5E5 E5D5 D5C5 C5B5 B5A5 A5A6 A6B6" id="route167" />


    <route edges="F6E6 E6E5 E5F5 F5F6" id="route168" />


    <route edges="B4C4 C4D4 D4E4 E4F4 F4F3 F3G3" id="route169" />


    <route edges="D1E1 E1E0 E0D0 D0C0 C0C1 C1D1" id="route170" />


    <route edges="F2G2 G2G3 G3G4 G4G5 G5F5 F5E5 E5D5 D5C5 C5B5 B5A5" id="route171" />


    <route edges="A1A2 A2A3 A3B3 B3B4" id="route172" />


    <route edges="C2D2 D2D3 D3D4 D4D5 D5E5 E5F5 F5G5" id="route173" />


    <route edges="G4G5 G5F5 F5E5 E5D5 D5D4 D4D3 D3D2 D2D1 D1D0 D0C0 C0C1" id="route174" />


    <route edges="E2F2 F2F3 F3E3 E3D3 D3C3 C3C4 C4C5 C5D5" id="route175" />


    <route edges="G5G4 G4F4 F4E4 E4D4 D4D5 D5C5" id="route176" />


    <route edges="G3F3 F3F2 F2F1 F1F0 F0E0 E0D0 D0C0 C0B0 B0A0" id="route177" />


    <route edges="G5F5 F5E5 E5D5 D5C5 C5B5 B5B4 B4B3 B3B2 B2C2" id="route178" />


    <route edges="G4G3 G3F3 F3E3 E3D3 D3C3 C3B3 B3B4 B4B5 B5B6 B6C6" id="route179" />


    <route edges="A6B6 B6C6 C6D6 D6D5 D5D4 D4D3 D3D2 D2D1 D1D0 D0E0" id="route180" />


    <route edges="E6F6 F6F5 F5F4 F4F3 F3F2 F2E2 E2D2 D2C2 C2B2" id="route181" />


    <route edges="E1E0 E0D0 D0D1 D1D2 D2D3 D3E3" id="route182" />


    <route edges="C5B5 B5B6 B6C6 C6D6 D6E6" id="route183" />


    <route edges="B6A6 A6A5 A5B5 B5C5 C5D5 D5E5 E5F5" id="route184" />


    <route edges="A0A1 A1A2 A2B2 B2C2 C2D2 D2E2 E2F2 F2G2 G2G1" id="route185" />


    <route edges="D5C5 C5C6 C6D6 D6D5 D5E5 E5E6 E6D6" id="route186" />


    <route edges="F0F1 F1F2 F2F3 F3F4 F4E4 E4D4" id="route187" />


    <route edges="C4C3 C3B3 B3B4 B4A4 A4A3" id="route188" />


    <route edges="E3F3 F3F2 F2F1 F1E1 E1D1 D1C1 C1C2 C2D2" id="route189" />


    <route edges="C2B2 B2B3 B3B4 B4C4 C4D4 D4E4 E4F4 F4F5 F5E5" id="route190" />


    <route edges="E6D6 D6D5 D5D4 D4D3 D3D2 D2D1 D1C1 C1C2" id="route191" />


    <route edges="C1D1 D1D2 D2D3 D3D4 D4D5 D5D6 D6C6 C6B6" id="route192" />


    <route edges="C5D5 D5D4 D4D3 D3D2 D2C2 C2C1 C1C0" id="route193" />


    <route edges="B0C0 C0C1 C1C2 C2C3 C3C4 C4C5 C5C6 C6D6" id="route194" />


    <route edges="G3F3 F3F4 F4E4 E4E3" id="route195" />


    <route edges="G1F1 F1F0 F0E0 E0E1 E1F1" id="route196" />


    <route edges="C1C2 C2C3 C3C4 C4C5 C5D5 D5D6" id="route197" />


    <route edges="A0A1 A1A2 A2B2 B2C2 C2C1 C1B1" id="route198" />


    <route edges="D0D1 D1E1 E1E0 E0D0" id="route199" />


    <route edges="E3E2 E2D2 D2C2" id="route200" />


    <route edges="D1C1 C1C2 C2C3 C3C4 C4B4 B4B3" id="route201" />


    <route edges="D2D1 D1D0 D0E0 E0F0 F0G0 G0G1 G1F1" id="route202" />


    <route edges="F2G2 G2G1 G1F1 F1E1 E1D1 D1C1 C1B1 B1B2 B2B3" id="route203" />


    <route edges="A5A4 A4B4 B4C4 C4C5 C5D5 D5D4 D4C4" id="route204" />


    <route edges="E2E3 E3D3 D3C3 C3B3" id="route205" />


    <route edges="F3G3 G3G2 G2G1 G1F1 F1E1" id="route206" />


    <route edges="E4E3 E3D3 D3C3 C3B3 B3B4 B4C4" id="route207" />


    <route edges="B3C3 C3C2 C2B2 B2A2 A2A1 A1B1" id="route208" />


    <route edges="B5C5 C5D5 D5D4 D4D3 D3D2 D2D1" id="route209" />


    <route edges="F5E5 E5D5 D5C5 C5C4 C4B4 B4A4 A4A5" id="route210" />


    <route edges="C6C5 C5D5 D5E5 E5E4 E4E3 E3E2 E2E1" id="route211" />


    <route edges="B3B4 B4C4 C4D4 D4E4 E4E5 E5D5" id="route212" />


    <route edges="D3D2 D2C2 C2B2 B2B3 B3B4 B4B5 B5B6" id="route213" />


    <route edges="E3E4 E4D4 D4C4 C4B4 B4B3 B3B2 B2B1 B1B0 B0A0 A0A1" id="route214" />


    <route edges="F1E1 E1E2 E2F2 F2F1 F1G1" id="route215" />


    <route edges="A6A5 A5B5 B5C5 C5D5 D5D4 D4D3 D3D2 D2D1 D1D0 D0C0" id="route216" />


    <route edges="B2C2 C2D2 D2E2 E2F2 F2G2 G2G3 G3G4 G4F4" id="route217" />


    <route edges="D4D3 D3C3 C3B3 B3A3 A3A2" id="route218" />


    <route edges="B5C5 C5D5 D5E5 E5E6 E6F6 F6F5 F5E5" id="route219" />


    <route edges="D1D2 D2E2 E2F2 F2F3 F3E3" id="route220" />


    <route edges="E4D4 D4D5 D5E5 E5F5 F5G5 G5G6" id="route221" />


    <route edges="E1D1 D1D2 D2E2 E2F2 F2G2 G2G3 G3G4" id="route222" />


    <route edges="G0F0 F0E0 E0E1 E1E2" id="route223" />


    <route edges="E6D6 D6D5 D5D4 D4E4 E4E3 E3D3 D3D4" id="route224" />


    <route edges="F4F3 F3E3 E3D3 D3D4 D4D5 D5D6" id="route225" />


    <route edges="G0G1 G1F1 F1E1 E1E0 E0F0 F0F1" id="route226" />


    <route edges="D2D1 D1C1 C1C2 C2C3 C3C4 C4C5 C5C6 C6B6 B6B5" id="route227" />


    <route edges="B5C5 C5D5 D5D4 D4D3 D3D2 D2E2 E2F2" id="route228" />


    <route edges="F1F2 F2F3 F3F4 F4E4 E4D4 D4D3" id="route229" />


    <route edges="E2E1 E1E0 E0D0 D0C0 C0C1" id="route230" />


    <route edges="A4B4 B4C4 C4C3 C3C2 C2C1 C1B1" id="route231" />


    <route edges="C0B0 B0B1 B1B2 B2C2 C2C1" id="route232" />


    <route edges="D5C5 C5B5 B5B4 B4B3 B3B2 B2B1 B1B0" id="route233" />


    <route edges="B5A5 A5A6 A6B6 B6C6 C6D6 D6E6 E6E5 E5D5" id="route234" />


    <route edges="E5E6 E6D6 D6C6 C6B6 B6A6 A6A5 A5A4 A4A3 A3B3" id="route235" />


    <route edges="C6B6 B6B5 B5C5 C5D5 D5D4" id="route236" />


    <route edges="C6C5 C5C4 C4B4 B4A4" id="route237" />


    <route edges="C6D6 D6E6 E6F6 F6G6 G6G5 G5G4 G4G3 G3G2 G2G1 G1G0" id="route238" />


    <route edges="E0E1 E1E2 E2E3 E3E4 E4E5 E5D5" id="route239" />


    <route edges="F5F4 F4F3 F3F2 F2G2 G2G1 G1F1 F1F2" id="route240" />


    <route edges="C4D4 D4D3 D3D2 D2D1 D1D0 D0C0 C0B0 B0A0 A0A1" id="route241" />


    <route edges="C3D3 D3E3 E3F3 F3F2 F2F1 F1E1" id="route242" />


    <route edges="F5F4 F4F3 F3G3 G3G4 G4F4" id="route243" />


    <route edges="C6D6 D6E6 E6F6 F6F5 F5F4 F4F3 F3F2 F2F1 F1F0 F0G0" id="route244" />


    <route edges="D5D4 D4D3 D3D2 D2E2 E2E1 E1E0" id="route245" />


    <route edges="B4C4 C4C3 C3B3 B3B4 B4B5" id="route246" />


    <route edges="D0E0 E0E1 E1D1 D1C1 C1C0 C0B0 B0A0 A0A1 A1B1" id="route247" />


    <route edges="C3B3 B3B4 B4C4 C4D4 D4E4 E4E5" id="route248" />


    <route edges="C5D5 D5D4 D4D3 D3C3 C3B3 B3B2 B2B1" id="route249" />


    <route edges="D2C2 C2B2 B2B1 B1B0 B0C0" id="route250" />


    <route edges="E2D2 D2C2 C2B2 B2A2 A2A1 A1B1" id="route251" />


    <route edges="C5C6 C6D6 D6E6 E6E5 E5D5 D5D6 D6C6" id="route252" />


    <route edges="A1B1 B1C1 C1D1 D1D2 D2E2 E2F2" id="route253" />


    <route edges="B1A1 A1A2 A2B2 B2C2 C2C1 C1D1 D1E1" id="route254" />


    <route edges="A3A2 A2B2 B2C2 C2C3 C3C4 C4D4" id="route255" />


    <route edges="B4B3 B3B2 B2C2 C2C3" id="route256" />


    <route edges="F1F0 F0E0 E0D0 D0C0 C0C1 C1C2 C2C3 C3C4 C4D4" id="route257" />


    <route edges="F1E1 E1E2 E2E3 E3E4 E4F4 F4F3" id="route258" />


    <route edges="B6A6 A6A5 A5A4 A4B4" id="route259" />


    <route edges="A1A2 A2A3 A3B3 B3C3 C3D3 D3D4 D4D5 D5C5" id="route260" />


    <route edges="G6G5 G5G4 G4G3 G3F3 F3E3 E3D3 D3C3 C3C4" id="route261" />


    <route edges="E3E2 E2F2 F2F1" id="route262" />


    <route edges="E3E2 E2F2 F2F1 F1E1" id="route263" />


    <route edges="G3G4 G4F4 F4E4 E4D4 D4C4 C4B4 B4B3 B3C3" id="route264" />


    <route edges="A1A2 A2B2 B2B1 B1C1" id="route265" />


    <route edges="B0C0 C0D0 D0E0 E0E1 E1E2 E2E3 E3E4 E4D4" id="route266" />


    <route edges="D6C6 C6C5 C5C4 C4B4 B4B5" id="route267" />


    <route edges="E5E4 E4E3 E3E2 E2E1 E1F1 F1F2" id="route268" />


    <route edges="B2B3 B3C3 C3D3 D3D2 D2D1 D1E1 E1E2" id="route269" />


    <route edges="F0G0 G0G1 G1F1 F1E1 E1D1 D1D0 D0C0 C0B0 B0A0" id="route270" />


    <route edges="F3G3 G3G4 G4G5" id="route271" />


    <route edges="A6B6 B6B5 B5B4 B4B3 B3A3 A3A2 A2A1 A1B1" id="route272" />


    <route edges="C2B2 B2B3 B3B4 B4C4 C4D4 D4E4 E4E3" id="route273" />


    <route edges="G4F4 F4E4 E4D4 D4C4 C4C5 C5C6" id="route274" />


    <route edges="E6D6 D6D5 D5D4 D4C4 C4B4 B4A4 A4A5" id="route275" />


    <route edges="E5D5 D5D4 D4D3 D3E3 E3E2 E2E1" id="route276" />


    <route edges="A6A5 A5A4 A4A3 A3A2 A2A1 A1B1 B1C1 C1D1 D1E1 E1F1 F1G1" id="route277" />


    <route edges="F5E5 E5E4 E4E3 E3E2 E2E1 E1D1" id="route278" />


    <route edges="B0B1 B1B2 B2B3 B3B4 B4B5 B5C5 C5D5 D5E5 E5F5 F5G5 G5G6" id="route279" />


    <route edges="F2F1 F1E1 E1D1 D1C1 C1C2 C2C3 C3C4" id="route280" />


    <route edges="D0C0 C0C1 C1C2 C2C3 C3C4 C4C5" id="route281" />


    <route edges="D3E3 E3E2 E2D2 D2D3 D3C3 C3C2" id="route282" />


    <route edges="F5E5 E5E6 E6F6 F6F5 F5F4 F4E4" id="route283" />


    <route edges="A6A5 A5A4 A4B4 B4C4 C4D4 D4E4 E4F4 F4G4 G4G3" id="route284" />


    <route edges="E2E3 E3E4 E4F4 F4F3" id="route285" />


    <route edges="E5E6 E6D6 D6D5 D5D4 D4D3 D3D2 D2D1 D1D0 D0E0" id="route286" />


    <route edges="F0E0 E0E1 E1E2 E2F2 F2G2 G2G3 G3G4 G4G5" id="route287" />


    <route edges="C0B0 B0B1 B1B2 B2B3 B3C3 C3D3 D3E3 E3F3 F3F2" id="route288" />


    <route edges="D5C5 C5C4 C4C3 C3C2 C2D2 D2E2" id="route289" />


    <route edges="D0E0 E0E1 E1E2 E2E3 E3E4 E4E5 E5E6 E6F6" id="route290" />


    <route edges="C0B0 B0B1 B1B2 B2B3 B3B4 B4B5 B5C5 C5D5 D5E5 E5F5 F5F4" id="route291" />


    <route edges="F4F3 F3E3 E3D3 D3D4 D4D5 D5C5 C5B5 B5A5 A5A4" id="route292" />


    <route edges="F6G6 G6G5 G5F5 F5E5 E5D5 D5C5 C5B5 B5B6" id="route293" />


    <route edges="D2C2 C2C1 C1D1 D1E1 E1E2" id="route294" />


    <route edges="C4D4 D4D3 D3C3 C3B3 B3A3 A3A2 A2A1 A1B1" id="route295" />


    <route edges="F5E5 E5E4 E4E3 E3D3 D3C3 C3B3 B3A3" id="route296" />


    <route edges="B4B3 B3C3 C3D3 D3D4 D4E4 E4F4 F4F3 F3E3" id="route297" />


    <route edges="C3C2 C2D2 D2E2 E2E3 E3E4 E4E5 E5E6 E6F6 F6F5" id="route298" />


    <route edges="E5E4 E4E3 E3E2 E2E1 E1E0 E0D0 D0C0 C0C1" id="route299" />


    <route edges="A0B0 B0C0 C0D0 D0E0 E0F0 F0G0 G0G1 G1G2 G2G3 G3G4" id="route300" />


    <route edges="A5A4 A4B4 B4C4 C4D4 D4E4 E4E5 E5E6 E6D6" id="route301" />


    <route edges="D3C3 C3C2 C2D2 D2E2 E2F2 F2F1 F1F0" id="route302" />


    <route edges="E5D5 D5D4 D4E4 E4E3 E3D3" id="route303" />


    <route edges="D3C3 C3C2 C2D2 D2E2 E2F2 F2G2" id="route304" />


    <route edges="A5A6 A6B6 B6B5 B5B4 B4C4" id="route305" />


    <route edges="E5D5 D5C5 C5C4 C4C3 C3C2 C2C1 C1D1" id="route306" />


    <route edges="E0D0 D0C0 C0C1 C1C2 C2D2 D2D1" id="route307" />


    <route edges="D4E4 E4E3 E3E2 E2E1 E1E0 E0D0 D0C0" id="route308" />


    <route edges="F0G0 G0G1 G1F1 F1E1 E1D1 D1C1 C1C2 C2D2" id="route309" />


    <route edges="E5E6 E6D6 D6C6 C6C5 C5C4 C4C3 C3C2 C2C1 C1C0 C0B0" id="route310" />


    <route edges="B6A6 A6A5 A5A4 A4A3 A3A2 A2A1 A1A0 A0B0 B0B1" id="route311" />


    <route edges="B3B4 B4C4 C4C3 C3C2 C2C1 C1C0 C0B0 B0B1" id="route312" />


    <route edges="D5C5 C5C4 C4C3 C3C2 C2C1 C1D1 D1E1 E1F1 F1F2" id="route313" />


    <route edges="B3B2 B2A2 A2A3 A3A4 A4B4 B4B5" id="route314" />


    <route edges="D2E2 E2E3 E3E4 E4D4 D4D5 D5D6 D6E6 E6E5" id="route315" />


    <route edges="G5G4 G4F4 F4E4 E4D4 D4D5" id="route316" />


    <route edges="C0D0 D0D1 D1C1 C1B1 B1A1 A1A2 A2A3 A3A4 A4A5 A5B5" id="route317" />


    <route edges="B3B4 B4B5 B5A5" id="route318" />


    <route edges="B3A3 A3A2 A2A1 A1A0" id="route319" />


    <route edges="D4E4 E4E3 E3E2 E2E1 E1E0 E0D0 D0C0 C0C1" id="route320" />


    <route edges="G5F5 F5E5 E5D5 D5D6" id="route321" />


    <route edges="E5E4 E4E3 E3D3 D3C3 C3B3 B3B2 B2B1 B1B0 B0C0" id="route322" />


    <route edges="F5G5 G5G4 G4G3 G3F3 F3E3 E3D3 D3C3" id="route323" />


    <route edges="F6E6 E6E5 E5D5 D5D6 D6E6" id="route324" />


    <route edges="D2C2 C2C1 C1C0 C0D0 D0E0" id="route325" />


    <route edges="B3A3 A3A2" id="route326" />


    <route edges="G3G2 G2F2 F2E2 E2D2 D2D3" id="route327" />


    <route edges="F4E4 E4D4 D4C4 C4C5 C5D5" id="route328" />


    <route edges="A4A5 A5B5 B5C5 C5D5 D5E5 E5E4 E4E3 E3E2 E2E1" id="route329" />


    <route edges="A3A4 A4B4 B4B3 B3B2 B2B1 B1C1" id="route330" />


    <route edges="D6C6 C6C5 C5C4 C4C3 C3C2 C2C1 C1D1" id="route331" />


    <route edges="G6F6 F6E6 E6D6 D6C6 C6B6 B6B5 B5B4 B4B3 B3B2 B2B1 B1B0 B0A0" id="route332" />


    <route edges="F1F2 F2E2 E2E1 E1E0" id="route333" />


    <route edges="F2F3 F3E3 E3D3 D3C3 C3B3 B3B4 B4C4" id="route334" />


    <route edges="D4D3 D3D2 D2D1 D1D0" id="route335" />


    <route edges="D1C1 C1C2 C2D2 D2E2 E2F2 F2F3 F3F4 F4F5 F5F6" id="route336" />


    <route edges="G6F6 F6E6 E6D6 D6C6 C6C5 C5C4 C4C3 C3C2 C2C1 C1D1" id="route337" />


    <route edges="E2D2 D2D1 D1E1 E1E2" id="route338" />


    <route edges="F0F1 F1F2 F2F3 F3G3 G3G4" id="route339" />


    <route edges="B4A4 A4A5 A5B5 B5B4 B4B3" id="route340" />


    <route edges="E3E4 E4D4 D4C4 C4C3 C3C2 C2B2 B2A2" id="route341" />


    <route edges="B2C2 C2C3 C3C4 C4B4 B4A4 A4A5" id="route342" />


    <route edges="A0A1 A1B1 B1C1 C1D1 D1D0" id="route343" />


    <route edges="E0F0 F0F1 F1E1 E1D1 D1C1 C1B1" id="route344" />


    <route edges="B5A5 A5A6 A6B6 B6C6 C6C5 C5D5 D5E5 E5E6" id="route345" />


    <route edges="E5E6 E6F6 F6F5 F5F4 F4F3 F3F2 F2F1 F1E1 E1D1 D1D2" id="route346" />


    <route edges="E4F4 F4G4 G4G3 G3G2 G2G1" id="route347" />


    <route edges="F2F3 F3E3 E3E2 E2E1" id="route348" />


    <route edges="E3F3 F3F2 F2G2 G2G3" id="route349" />


    <route edges="D0C0 C0C1 C1C2 C2C3 C3C4 C4C5 C5D5 D5D4" id="route350" />


    <route edges="E3D3 D3D2 D2E2 E2F2 F2G2 G2G1 G1G0" id="route351" />


    <route edges="F4E4 E4D4 D4C4 C4B4 B4A4 A4A3" id="route352" />


    <route edges="B2B1 B1C1 C1D1" id="route353" />


    <route edges="F0G0 G0G1 G1G2 G2G3 G3G4 G4G5 G5G6 G6F6 F6E6 E6D6 D6D5" id="route354" />


    <route edges="C1B1 B1A1 A1A0 A0B0 B0B1" id="route355" />


    <route edges="E4F4 F4F5 F5E5 E5E4" id="route356" />


    <route edges="G3G2 G2F2 F2E2 E2D2 D2D3 D3D4" id="route357" />


    <route edges="D3C3 C3B3 B3A3 A3A4 A4B4" id="route358" />


    <route edges="A2A3 A3B3 B3B2 B2B1 B1B0 B0C0 C0D0 D0D1" id="route359" />


    <route edges="C2C3 C3C4 C4C5 C5C6 C6B6 B6A6" id="route360" />


    <route edges="A5A6 A6B6 B6C6 C6D6 D6E6 E6F6 F6G6 G6G5 G5G4 G4G3" id="route361" />


    <route edges="F4F5 F5E5 E5D5 D5D6 D6E6" id="route362" />


    <route edges="G3G4 G4F4 F4F5 F5F6 F6G6 G6G5" id="route363" />


    <route edges="E4D4 D4D3 D3D2 D2D1 D1D0 D0C0 C0B0" id="route364" />


    <route edges="A2A3 A3B3 B3C3 C3D3 D3E3 E3F3 F3F2 F2F1 F1F0" id="route365" />


    <route edges="D2D1 D1C1 C1C2 C2C3 C3D3 D3E3 E3E2" id="route366" />


    <route edges="G1G2 G2G3 G3F3 F3E3 E3D3 D3C3 C3B3 B3A3" id="route367" />


    <route edges="E0E1 E1E2 E2E3" id="route368" />


    <route edges="D3C3 C3B3 B3A3 A3A4 A4A5 A5A6" id="route369" />


    <route edges="C3C4 C4D4 D4D3 D3C3 C3C2 C2D2" id="route370" />


    <route edges="E4D4 D4D5 D5E5 E5F5 F5F6" id="route371" />


    <route edges="C2D2 D2E2 E2E3 E3E4 E4E5 E5D5" id="route372" />


    <route edges="C1B1 B1B2 B2B3 B3C3 C3D3 D3E3 E3F3 F3G3 G3G2" id="route373" />


    <route edges="F3F4 F4E4 E4D4 D4D5 D5D6" id="route374" />


    <route edges="D1D2 D2C2 C2B2" id="route375" />


    <route edges="C2C3 C3D3 D3E3 E3F3 F3G3 G3G4 G4G5" id="route376" />


    <route edges="C5D5 D5D4 D4C4" id="route377" />


    <route edges="G6F6 F6F5 F5F4 F4F3 F3E3 E3E4" id="route378" />


    <route edges="D5D4 D4C4 C4B4 B4B5 B5B6 B6C6 C6C5" id="route379" />


    <route edges="B3B2 B2C2 C2C3 C3C4 C4B4" id="route380" />


    <route edges="F1F0 F0E0 E0D0 D0D1 D1D2 D2E2 E2E1" id="route381" />


    <route edges="F1F0 F0E0 E0D0 D0C0 C0B0 B0B1 B1B2 B2B3 B3B4 B4A4" id="route382" />


    <route edges="D5D6 D6E6 E6F6 F6G6 G6G5 G5G4 G4G3 G3G2 G2G1" id="route383" />


    <route edges="D0E0 E0E1 E1E2 E2D2 D2D3 D3D4 D4D5 D5E5 E5E4" id="route384" />


    <route edges="B0B1 B1B2 B2B3 B3B4 B4C4 C4D4 D4E4 E4F4 F4G4 G4G5 G5F5" id="route385" />


    <route edges="E1E2 E2D2 D2C2 C2B2 B2B3 B3B4 B4B5 B5B6" id="route386" />


    <route edges="B2A2 A2A3 A3A4 A4A5 A5B5 B5C5 C5D5 D5D6" id="route387" />


    <route edges="D5D6 D6C6 C6B6 B6B5 B5A5 A5A6" id="route388" />


    <route edges="G6F6 F6F5 F5F4 F4F3 F3F2 F2F1 F1G1 G1G2" id="route389" />


    <route edges="D1E1 E1E0 E0D0 D0C0 C0B0 B0A0" id="route390" />


    <route edges="F4F3 F3E3 E3D3 D3D2" id="route391" />


    <route edges="E6D6 D6D5 D5D4 D4D3 D3E3" id="route392" />


    <route edges="C0B0 B0B1 B1B2 B2B3 B3B4 B4C4 C4D4 D4E4 E4F4 F4F5" id="route393" />


    <route edges="G5G4 G4F4 F4E4 E4D4 D4C4 C4B4 B4B5 B5B6" id="route394" />


    <route edges="D5D6 D6C6 C6C5 C5B5" id="route395" />


    <route edges="G2F2 F2E2 E2D2 D2D3 D3E3" id="route396" />


    <route edges="F6F5 F5G5" id="route397" />


    <route edges="C0C1 C1C2 C2D2 D2E2 E2F2 F2F3" id="route398" />


    <route edges="C6C5 C5C4 C4C3 C3C2 C2D2 D2E2 E2F2 F2G2 G2G3" id="route399" />


    <route edges="D3E3 E3F3 F3G3" id="route400" />


    <route edges="C0D0 D0D1 D1C1 C1C2" id="route401" />


    <route edges="E0E1 E1E2 E2E3 E3E4 E4E5 E5E6 E6F6 F6G6 G6G5" id="route402" />


    <route edges="D3C3 C3C2 C2C1 C1B1 B1B2" id="route403" />


    <route edges="D5C5 C5C4 C4C3 C3C2" id="route404" />


    <route edges="D5D6 D6E6 E6E5 E5D5 D5D4" id="route405" />


    <route edges="D1D2 D2C2 C2C3" id="route406" />


    <route edges="B3B2 B2C2 C2C3 C3C4 C4C5 C5D5 D5E5 E5E4" id="route407" />


    <route edges="D6E6 E6E5 E5D5 D5C5 C5B5 B5B4" id="route408" />


    <route edges="F2E2 E2D2 D2C2 C2C1 C1B1 B1A1 A1A2 A2B2" id="route409" />


    <route edges="F0G0 G0G1 G1G2 G2F2 F2E2 E2E3 E3E4 E4E5 E5E6" id="route410" />


    <route edges="F3F4 F4F5 F5E5 E5D5 D5C5 C5B5" id="route411" />


    <route edges="E3F3 F3G3" id="route412" />


    <route edges="G5G4 G4G3 G3F3 F3E3 E3D3 D3D2" id="route413" />


    <route edges="A2A3 A3B3 B3C3 C3D3 D3D4" id="route414" />


    <route edges="E0F0 F0F1 F1F2 F2F3 F3F4 F4F5 F5F6 F6E6" id="route415" />


    <route edges="F6E6 E6D6 D6D5 D5D4 D4D3 D3D2 D2D1 D1D0 D0E0" id="route416" />


    <route edges="D4D5 D5E5 E5E4 E4E3 E3E2 E2E1 E1D1 D1D2" id="route417" />


    <route edges="E6E5 E5D5 D5C5 C5C6 C6B6" id="route418" />


    <route edges="E3E4 E4D4 D4C4 C4B4 B4B3 B3B2 B2B1 B1C1" id="route419" />


    <route edges="D2C2 C2C3 C3C4 C4D4 D4E4 E4F4 F4G4 G4G5" id="route420" />

